-INST0: https://github.com/carenelarmat/S22449.git was created and first commit contain original sources of SPECFEM3D_22449; 

-INST1: Linking directory SPECFEM3D_22449_Current (containing the changes relative to ATMO that I want to track) to master branch in https://github.com/carenelarmat/S22449.git

-INST2: My files on this directory are untracked (there is nothing in the .git) I had to add and staged so git knows about them:
git add -A ./
git commit -a -m"SPECFEM3D_22449_Current at LANL" 

-INST3: Time for comparison with sources v0.0 in the repository through a pull: 

[carene@cj-fe1 SPECFEM3D_22449_Current]$ git pull https://github.com/carenelarmat/S22449.git
warning: no common commits
remote: Counting objects: 3101, done.
remote: Compressing objects: 100% (1973/1973), done.
remote: Total 3101 (delta 991), reused 3092 (delta 989), pack-reused 0
Receiving objects: 100% (3101/3101), 109.45 MiB | 1014.00 KiB/s, done.
Resolving deltas: 100% (991/991), done.
From https://github.com/carenelarmat/S22449
 * branch            HEAD       -> FETCH_HEAD
Auto-merging src/specfem3D/write_seismograms.f90
CONFLICT (add/add): Merge conflict in src/specfem3D/write_seismograms.f90
Auto-merging src/specfem3D/write_output_ASCII.f90
CONFLICT (add/add): Merge conflict in src/specfem3D/write_output_ASCII.f90
Auto-merging src/specfem3D/specfem3D_par.f90
CONFLICT (add/add): Merge conflict in src/specfem3D/specfem3D_par.f90
Auto-merging src/specfem3D/specfem3D.f90
CONFLICT (add/add): Merge conflict in src/specfem3D/specfem3D.f90
Auto-merging src/specfem3D/read_mesh_databases.f90
CONFLICT (add/add): Merge conflict in src/specfem3D/read_mesh_databases.f90
Auto-merging src/specfem3D/prepare_timerun.F90
CONFLICT (add/add): Merge conflict in src/specfem3D/prepare_timerun.F90
Auto-merging src/specfem3D/locate_source.f90
CONFLICT (add/add): Merge conflict in src/specfem3D/locate_source.f90
Auto-merging src/specfem3D/locate_receivers.f90
CONFLICT (add/add): Merge conflict in src/specfem3D/locate_receivers.f90
Auto-merging src/specfem3D/iterate_time.F90
CONFLICT (add/add): Merge conflict in src/specfem3D/iterate_time.F90
Auto-merging src/specfem3D/create_color_image.f90
CONFLICT (add/add): Merge conflict in src/specfem3D/create_color_image.f90
Auto-merging src/specfem3D/compute_interpolated_dva.f90
CONFLICT (add/add): Merge conflict in src/specfem3D/compute_interpolated_dva.f90
Auto-merging src/specfem3D/comp_source_time_function.f90
CONFLICT (add/add): Merge conflict in src/specfem3D/comp_source_time_function.f90
Auto-merging src/shared/read_topo_bathy_file.f90
CONFLICT (add/add): Merge conflict in src/shared/read_topo_bathy_file.f90
Auto-merging src/shared/create_movie_shakemap_AVS_DX_GMT.f90
CONFLICT (add/add): Merge conflict in src/shared/create_movie_shakemap_AVS_DX_GMT.f90
Auto-merging src/shared/constants.h.in
CONFLICT (add/add): Merge conflict in src/shared/constants.h.in
Auto-merging src/shared/check_mesh_resolution.f90
CONFLICT (add/add): Merge conflict in src/shared/check_mesh_resolution.f90
Auto-merging src/meshfem3D/create_regions_mesh.f90
CONFLICT (add/add): Merge conflict in src/meshfem3D/create_regions_mesh.f90
Auto-merging src/generate_databases/model_tomography.f90
CONFLICT (add/add): Merge conflict in src/generate_databases/model_tomography.f90
Auto-merging src/decompose_mesh/scotch_5.1.12b/src/scotch/Makefile
CONFLICT (add/add): Merge conflict in src/decompose_mesh/scotch_5.1.12b/src/scotch/Makefile
Auto-merging src/decompose_mesh/scotch_5.1.12b/src/libscotch/Makefile
CONFLICT (add/add): Merge conflict in src/decompose_mesh/scotch_5.1.12b/src/libscotch/Makefile
Adding src/decompose_mesh/scotch/tgt/void.tgt
Adding src/decompose_mesh/scotch/tgt/vhcub.tgt
Adding src/decompose_mesh/scotch/tgt/vcmplt.tgt
Adding src/decompose_mesh/scotch/tgt/t4x4x4.tgt
Adding src/decompose_mesh/scotch/tgt/t2x4x8.tgt
Adding src/decompose_mesh/scotch/tgt/p8.tgt
Adding src/decompose_mesh/scotch/tgt/p64.tgt
Adding src/decompose_mesh/scotch/tgt/p512.tgt
Adding src/decompose_mesh/scotch/tgt/p4.tgt
Adding src/decompose_mesh/scotch/tgt/p32.tgt
Adding src/decompose_mesh/scotch/tgt/p256.tgt
Adding src/decompose_mesh/scotch/tgt/p2.tgt
Adding src/decompose_mesh/scotch/tgt/p16.tgt
Adding src/decompose_mesh/scotch/tgt/p128.tgt
Adding src/decompose_mesh/scotch/tgt/m9x7.tgt
Adding src/decompose_mesh/scotch/tgt/m9x11.tgt
Adding src/decompose_mesh/scotch/tgt/m8x8.tgt
Adding src/decompose_mesh/scotch/tgt/m8x16.tgt
Adding src/decompose_mesh/scotch/tgt/m64x64.tgt
Adding src/decompose_mesh/scotch/tgt/m5x7.tgt
Adding src/decompose_mesh/scotch/tgt/m5x5.tgt
Adding src/decompose_mesh/scotch/tgt/m4x8.tgt
Adding src/decompose_mesh/scotch/tgt/m4x4.tgt
Adding src/decompose_mesh/scotch/tgt/m3x3.tgt
Adding src/decompose_mesh/scotch/tgt/m32x32.tgt
Adding src/decompose_mesh/scotch/tgt/m2x4x8.tgt
Adding src/decompose_mesh/scotch/tgt/m2x2.tgt
Adding src/decompose_mesh/scotch/tgt/m29x31.tgt
Adding src/decompose_mesh/scotch/tgt/m27x29.tgt
Adding src/decompose_mesh/scotch/tgt/m25x27.tgt
Adding src/decompose_mesh/scotch/tgt/m24x24.tgt
Adding src/decompose_mesh/scotch/tgt/m23x25.tgt
Adding src/decompose_mesh/scotch/tgt/m21x23.tgt
Adding src/decompose_mesh/scotch/tgt/m19x31.tgt
Adding src/decompose_mesh/scotch/tgt/m19x21.tgt
Adding src/decompose_mesh/scotch/tgt/m17x19.tgt
Adding src/decompose_mesh/scotch/tgt/m16x32.tgt
Adding src/decompose_mesh/scotch/tgt/m16x16.tgt
Adding src/decompose_mesh/scotch/tgt/m11x13.tgt
Adding src/decompose_mesh/scotch/tgt/m10x20.tgt
Adding src/decompose_mesh/scotch/tgt/m10x10.tgt
Adding src/decompose_mesh/scotch/tgt/k96.tgt
Adding src/decompose_mesh/scotch/tgt/k8.tgt
Adding src/decompose_mesh/scotch/tgt/k7.tgt
Adding src/decompose_mesh/scotch/tgt/k64.tgt
Adding src/decompose_mesh/scotch/tgt/k6.tgt
Adding src/decompose_mesh/scotch/tgt/k512.tgt
Adding src/decompose_mesh/scotch/tgt/k48.tgt
Adding src/decompose_mesh/scotch/tgt/k4.tgt
Adding src/decompose_mesh/scotch/tgt/k32.tgt
Adding src/decompose_mesh/scotch/tgt/k256.tgt
Adding src/decompose_mesh/scotch/tgt/k24.tgt
Adding src/decompose_mesh/scotch/tgt/k2.tgt
Adding src/decompose_mesh/scotch/tgt/k16.tgt
Adding src/decompose_mesh/scotch/tgt/k128.tgt
Adding src/decompose_mesh/scotch/tgt/k12.tgt
Adding src/decompose_mesh/scotch/tgt/k1.tgt
Adding src/decompose_mesh/scotch/tgt/h9.tgt
Adding src/decompose_mesh/scotch/tgt/h8.tgt
Adding src/decompose_mesh/scotch/tgt/h7.tgt
Adding src/decompose_mesh/scotch/tgt/h6.tgt
Adding src/decompose_mesh/scotch/tgt/h5.tgt
Adding src/decompose_mesh/scotch/tgt/h4.tgt
Adding src/decompose_mesh/scotch/tgt/h3.tgt
Adding src/decompose_mesh/scotch/tgt/h2.tgt
Adding src/decompose_mesh/scotch/tgt/h10.tgt
Adding src/decompose_mesh/scotch/tgt/h1.tgt
Adding src/decompose_mesh/scotch/tgt/T3D_64.tgt
Adding src/decompose_mesh/scotch/tgt/SP2_16.txt
Adding src/decompose_mesh/scotch/tgt/.svn/text-base/void.tgt.svn-base
Adding src/decompose_mesh/scotch/tgt/.svn/text-base/vhcub.tgt.svn-base
Adding src/decompose_mesh/scotch/tgt/.svn/text-base/vcmplt.tgt.svn-base
Adding src/decompose_mesh/scotch/tgt/.svn/text-base/t4x4x4.tgt.svn-base
Adding src/decompose_mesh/scotch/tgt/.svn/text-base/t2x4x8.tgt.svn-base
Adding src/decompose_mesh/scotch/tgt/.svn/text-base/p8.tgt.svn-base
Adding src/decompose_mesh/scotch/tgt/.svn/text-base/p64.tgt.svn-base
Adding src/decompose_mesh/scotch/tgt/.svn/text-base/p512.tgt.svn-base
Adding src/decompose_mesh/scotch/tgt/.svn/text-base/p4.tgt.svn-base
Adding src/decompose_mesh/scotch/tgt/.svn/text-base/p32.tgt.svn-base
Adding src/decompose_mesh/scotch/tgt/.svn/text-base/p256.tgt.svn-base
Adding src/decompose_mesh/scotch/tgt/.svn/text-base/p2.tgt.svn-base
Adding src/decompose_mesh/scotch/tgt/.svn/text-base/p16.tgt.svn-base
Adding src/decompose_mesh/scotch/tgt/.svn/text-base/p128.tgt.svn-base
Adding src/decompose_mesh/scotch/tgt/.svn/text-base/m9x7.tgt.svn-base
Adding src/decompose_mesh/scotch/tgt/.svn/text-base/m9x11.tgt.svn-base
Adding src/decompose_mesh/scotch/tgt/.svn/text-base/m8x8.tgt.svn-base
Adding src/decompose_mesh/scotch/tgt/.svn/text-base/m8x16.tgt.svn-base
Adding src/decompose_mesh/scotch/tgt/.svn/text-base/m64x64.tgt.svn-base
Adding src/decompose_mesh/scotch/tgt/.svn/text-base/m5x7.tgt.svn-base
Adding src/decompose_mesh/scotch/tgt/.svn/text-base/m5x5.tgt.svn-base
Adding src/decompose_mesh/scotch/tgt/.svn/text-base/m4x8.tgt.svn-base
Adding src/decompose_mesh/scotch/tgt/.svn/text-base/m4x4.tgt.svn-base
Adding src/decompose_mesh/scotch/tgt/.svn/text-base/m3x3.tgt.svn-base
Adding src/decompose_mesh/scotch/tgt/.svn/text-base/m32x32.tgt.svn-base
Adding src/decompose_mesh/scotch/tgt/.svn/text-base/m2x4x8.tgt.svn-base
Adding src/decompose_mesh/scotch/tgt/.svn/text-base/m2x2.tgt.svn-base
Adding src/decompose_mesh/scotch/tgt/.svn/text-base/m29x31.tgt.svn-base
Adding src/decompose_mesh/scotch/tgt/.svn/text-base/m27x29.tgt.svn-base
Adding src/decompose_mesh/scotch/tgt/.svn/text-base/m25x27.tgt.svn-base
Adding src/decompose_mesh/scotch/tgt/.svn/text-base/m24x24.tgt.svn-base
Adding src/decompose_mesh/scotch/tgt/.svn/text-base/m23x25.tgt.svn-base
Adding src/decompose_mesh/scotch/tgt/.svn/text-base/m21x23.tgt.svn-base
Adding src/decompose_mesh/scotch/tgt/.svn/text-base/m19x31.tgt.svn-base
Adding src/decompose_mesh/scotch/tgt/.svn/text-base/m19x21.tgt.svn-base
Adding src/decompose_mesh/scotch/tgt/.svn/text-base/m17x19.tgt.svn-base
Adding src/decompose_mesh/scotch/tgt/.svn/text-base/m16x32.tgt.svn-base
Adding src/decompose_mesh/scotch/tgt/.svn/text-base/m16x16.tgt.svn-base
Adding src/decompose_mesh/scotch/tgt/.svn/text-base/m11x13.tgt.svn-base
Adding src/decompose_mesh/scotch/tgt/.svn/text-base/m10x20.tgt.svn-base
Adding src/decompose_mesh/scotch/tgt/.svn/text-base/m10x10.tgt.svn-base
Adding src/decompose_mesh/scotch/tgt/.svn/text-base/k96.tgt.svn-base
Adding src/decompose_mesh/scotch/tgt/.svn/text-base/k8.tgt.svn-base
Adding src/decompose_mesh/scotch/tgt/.svn/text-base/k7.tgt.svn-base
Adding src/decompose_mesh/scotch/tgt/.svn/text-base/k64.tgt.svn-base
Adding src/decompose_mesh/scotch/tgt/.svn/text-base/k6.tgt.svn-base
Adding src/decompose_mesh/scotch/tgt/.svn/text-base/k512.tgt.svn-base
Adding src/decompose_mesh/scotch/tgt/.svn/text-base/k48.tgt.svn-base
Adding src/decompose_mesh/scotch/tgt/.svn/text-base/k4.tgt.svn-base
Adding src/decompose_mesh/scotch/tgt/.svn/text-base/k32.tgt.svn-base
Adding src/decompose_mesh/scotch/tgt/.svn/text-base/k256.tgt.svn-base
Adding src/decompose_mesh/scotch/tgt/.svn/text-base/k24.tgt.svn-base
Adding src/decompose_mesh/scotch/tgt/.svn/text-base/k2.tgt.svn-base
Adding src/decompose_mesh/scotch/tgt/.svn/text-base/k16.tgt.svn-base
Adding src/decompose_mesh/scotch/tgt/.svn/text-base/k128.tgt.svn-base
Adding src/decompose_mesh/scotch/tgt/.svn/text-base/k12.tgt.svn-base
Adding src/decompose_mesh/scotch/tgt/.svn/text-base/k1.tgt.svn-base
Adding src/decompose_mesh/scotch/tgt/.svn/text-base/h9.tgt.svn-base
Adding src/decompose_mesh/scotch/tgt/.svn/text-base/h8.tgt.svn-base
Adding src/decompose_mesh/scotch/tgt/.svn/text-base/h7.tgt.svn-base
Adding src/decompose_mesh/scotch/tgt/.svn/text-base/h6.tgt.svn-base
Adding src/decompose_mesh/scotch/tgt/.svn/text-base/h5.tgt.svn-base
Adding src/decompose_mesh/scotch/tgt/.svn/text-base/h4.tgt.svn-base
Adding src/decompose_mesh/scotch/tgt/.svn/text-base/h3.tgt.svn-base
Adding src/decompose_mesh/scotch/tgt/.svn/text-base/h2.tgt.svn-base
Adding src/decompose_mesh/scotch/tgt/.svn/text-base/h10.tgt.svn-base
Adding src/decompose_mesh/scotch/tgt/.svn/text-base/h1.tgt.svn-base
Adding src/decompose_mesh/scotch/tgt/.svn/text-base/T3D_64.tgt.svn-base
Adding src/decompose_mesh/scotch/tgt/.svn/text-base/SP2_16.txt.svn-base
Adding src/decompose_mesh/scotch/tgt/.svn/entries
Adding src/decompose_mesh/scotch/tgt/.svn/all-wcprops
Adding src/decompose_mesh/scotch/src/scotch/mtst.h
Adding src/decompose_mesh/scotch/src/scotch/mtst.c
Adding src/decompose_mesh/scotch/src/scotch/mord.h
Adding src/decompose_mesh/scotch/src/scotch/mord.c
Adding src/decompose_mesh/scotch/src/scotch/mmk_m3.h
Adding src/decompose_mesh/scotch/src/scotch/mmk_m3.c
Adding src/decompose_mesh/scotch/src/scotch/mmk_m2.h
Adding src/decompose_mesh/scotch/src/scotch/mmk_m2.c
Adding src/decompose_mesh/scotch/src/scotch/mcv.h
Adding src/decompose_mesh/scotch/src/scotch/mcv.c
Adding src/decompose_mesh/scotch/src/scotch/gtst.h
Adding src/decompose_mesh/scotch/src/scotch/gtst.c
Adding src/decompose_mesh/scotch/src/scotch/gscat.h
Adding src/decompose_mesh/scotch/src/scotch/gscat.c
Adding src/decompose_mesh/scotch/src/scotch/gout_o.h
Adding src/decompose_mesh/scotch/src/scotch/gout_o.c
Adding src/decompose_mesh/scotch/src/scotch/gout_c.h
Adding src/decompose_mesh/scotch/src/scotch/gout_c.c
Adding src/decompose_mesh/scotch/src/scotch/gotst.h
Adding src/decompose_mesh/scotch/src/scotch/gotst.c
Adding src/decompose_mesh/scotch/src/scotch/gord.h
Adding src/decompose_mesh/scotch/src/scotch/gord.c
Adding src/decompose_mesh/scotch/src/scotch/gmtst.h
Adding src/decompose_mesh/scotch/src/scotch/gmtst.c
Adding src/decompose_mesh/scotch/src/scotch/gmk_ub2.h
Adding src/decompose_mesh/scotch/src/scotch/gmk_ub2.c
Adding src/decompose_mesh/scotch/src/scotch/gmk_msh.h
Adding src/decompose_mesh/scotch/src/scotch/gmk_msh.c
Adding src/decompose_mesh/scotch/src/scotch/gmk_m3.h
Adding src/decompose_mesh/scotch/src/scotch/gmk_m3.c
Adding src/decompose_mesh/scotch/src/scotch/gmk_m2.h
Adding src/decompose_mesh/scotch/src/scotch/gmk_m2.c
Adding src/decompose_mesh/scotch/src/scotch/gmk_hy.h
Adding src/decompose_mesh/scotch/src/scotch/gmk_hy.c
Adding src/decompose_mesh/scotch/src/scotch/gmap.h
Adding src/decompose_mesh/scotch/src/scotch/gmap.c
Adding src/decompose_mesh/scotch/src/scotch/gcv.h
Adding src/decompose_mesh/scotch/src/scotch/gcv.c
Adding src/decompose_mesh/scotch/src/scotch/gbase.h
Adding src/decompose_mesh/scotch/src/scotch/gbase.c
Adding src/decompose_mesh/scotch/src/scotch/dgtst.h
Adding src/decompose_mesh/scotch/src/scotch/dgtst.c
Adding src/decompose_mesh/scotch/src/scotch/dgscat.h
Adding src/decompose_mesh/scotch/src/scotch/dgscat.c
Adding src/decompose_mesh/scotch/src/scotch/dgord.h
Adding src/decompose_mesh/scotch/src/scotch/dgord.c
Adding src/decompose_mesh/scotch/src/scotch/dgmap.h
Adding src/decompose_mesh/scotch/src/scotch/dgmap.c
Adding src/decompose_mesh/scotch/src/scotch/dggath.h
Adding src/decompose_mesh/scotch/src/scotch/dggath.c
Adding src/decompose_mesh/scotch/src/scotch/atst.h
Adding src/decompose_mesh/scotch/src/scotch/atst.c
Adding src/decompose_mesh/scotch/src/scotch/amk_p2.h
Adding src/decompose_mesh/scotch/src/scotch/amk_p2.c
Adding src/decompose_mesh/scotch/src/scotch/amk_m2.h
Adding src/decompose_mesh/scotch/src/scotch/amk_m2.c
Adding src/decompose_mesh/scotch/src/scotch/amk_hy.h
Adding src/decompose_mesh/scotch/src/scotch/amk_hy.c
Adding src/decompose_mesh/scotch/src/scotch/amk_grf.h
Adding src/decompose_mesh/scotch/src/scotch/amk_grf.c
Adding src/decompose_mesh/scotch/src/scotch/amk_fft2.h
Adding src/decompose_mesh/scotch/src/scotch/amk_fft2.c
Adding src/decompose_mesh/scotch/src/scotch/amk_ccc.h
Adding src/decompose_mesh/scotch/src/scotch/amk_ccc.c
Adding src/decompose_mesh/scotch/src/scotch/acpl.h
Adding src/decompose_mesh/scotch/src/scotch/acpl.c
Adding src/decompose_mesh/scotch/src/scotch/Makefile
Adding src/decompose_mesh/scotch/src/scotch/.svn/text-base/mtst.h.svn-base
Adding src/decompose_mesh/scotch/src/scotch/.svn/text-base/mtst.c.svn-base
Adding src/decompose_mesh/scotch/src/scotch/.svn/text-base/mord.h.svn-base
Adding src/decompose_mesh/scotch/src/scotch/.svn/text-base/mord.c.svn-base
Adding src/decompose_mesh/scotch/src/scotch/.svn/text-base/mmk_m3.h.svn-base
Adding src/decompose_mesh/scotch/src/scotch/.svn/text-base/mmk_m3.c.svn-base
Adding src/decompose_mesh/scotch/src/scotch/.svn/text-base/mmk_m2.h.svn-base
Adding src/decompose_mesh/scotch/src/scotch/.svn/text-base/mmk_m2.c.svn-base
Adding src/decompose_mesh/scotch/src/scotch/.svn/text-base/mcv.h.svn-base
Adding src/decompose_mesh/scotch/src/scotch/.svn/text-base/mcv.c.svn-base
Adding src/decompose_mesh/scotch/src/scotch/.svn/text-base/gtst.h.svn-base
Adding src/decompose_mesh/scotch/src/scotch/.svn/text-base/gtst.c.svn-base
Adding src/decompose_mesh/scotch/src/scotch/.svn/text-base/gscat.h.svn-base
Adding src/decompose_mesh/scotch/src/scotch/.svn/text-base/gscat.c.svn-base
Adding src/decompose_mesh/scotch/src/scotch/.svn/text-base/gout_o.h.svn-base
Adding src/decompose_mesh/scotch/src/scotch/.svn/text-base/gout_o.c.svn-base
Adding src/decompose_mesh/scotch/src/scotch/.svn/text-base/gout_c.h.svn-base
Adding src/decompose_mesh/scotch/src/scotch/.svn/text-base/gout_c.c.svn-base
Adding src/decompose_mesh/scotch/src/scotch/.svn/text-base/gotst.h.svn-base
Adding src/decompose_mesh/scotch/src/scotch/.svn/text-base/gotst.c.svn-base
Adding src/decompose_mesh/scotch/src/scotch/.svn/text-base/gord.h.svn-base
Adding src/decompose_mesh/scotch/src/scotch/.svn/text-base/gord.c.svn-base
Adding src/decompose_mesh/scotch/src/scotch/.svn/text-base/gmtst.h.svn-base
Adding src/decompose_mesh/scotch/src/scotch/.svn/text-base/gmtst.c.svn-base
Adding src/decompose_mesh/scotch/src/scotch/.svn/text-base/gmk_ub2.h.svn-base
Adding src/decompose_mesh/scotch/src/scotch/.svn/text-base/gmk_ub2.c.svn-base
Adding src/decompose_mesh/scotch/src/scotch/.svn/text-base/gmk_msh.h.svn-base
Adding src/decompose_mesh/scotch/src/scotch/.svn/text-base/gmk_msh.c.svn-base
Adding src/decompose_mesh/scotch/src/scotch/.svn/text-base/gmk_m3.h.svn-base
Adding src/decompose_mesh/scotch/src/scotch/.svn/text-base/gmk_m3.c.svn-base
Adding src/decompose_mesh/scotch/src/scotch/.svn/text-base/gmk_m2.h.svn-base
Adding src/decompose_mesh/scotch/src/scotch/.svn/text-base/gmk_m2.c.svn-base
Adding src/decompose_mesh/scotch/src/scotch/.svn/text-base/gmk_hy.h.svn-base
Adding src/decompose_mesh/scotch/src/scotch/.svn/text-base/gmk_hy.c.svn-base
Adding src/decompose_mesh/scotch/src/scotch/.svn/text-base/gmap.h.svn-base
Adding src/decompose_mesh/scotch/src/scotch/.svn/text-base/gmap.c.svn-base
Adding src/decompose_mesh/scotch/src/scotch/.svn/text-base/gcv.h.svn-base
Adding src/decompose_mesh/scotch/src/scotch/.svn/text-base/gcv.c.svn-base
Adding src/decompose_mesh/scotch/src/scotch/.svn/text-base/gbase.h.svn-base
Adding src/decompose_mesh/scotch/src/scotch/.svn/text-base/gbase.c.svn-base
Adding src/decompose_mesh/scotch/src/scotch/.svn/text-base/dgtst.h.svn-base
Adding src/decompose_mesh/scotch/src/scotch/.svn/text-base/dgtst.c.svn-base
Adding src/decompose_mesh/scotch/src/scotch/.svn/text-base/dgscat.h.svn-base
Adding src/decompose_mesh/scotch/src/scotch/.svn/text-base/dgscat.c.svn-base
Adding src/decompose_mesh/scotch/src/scotch/.svn/text-base/dgord.h.svn-base
Adding src/decompose_mesh/scotch/src/scotch/.svn/text-base/dgord.c.svn-base
Adding src/decompose_mesh/scotch/src/scotch/.svn/text-base/dgmap.h.svn-base
Adding src/decompose_mesh/scotch/src/scotch/.svn/text-base/dgmap.c.svn-base
Adding src/decompose_mesh/scotch/src/scotch/.svn/text-base/dggath.h.svn-base
Adding src/decompose_mesh/scotch/src/scotch/.svn/text-base/dggath.c.svn-base
Adding src/decompose_mesh/scotch/src/scotch/.svn/text-base/atst.h.svn-base
Adding src/decompose_mesh/scotch/src/scotch/.svn/text-base/atst.c.svn-base
Adding src/decompose_mesh/scotch/src/scotch/.svn/text-base/amk_p2.h.svn-base
Adding src/decompose_mesh/scotch/src/scotch/.svn/text-base/amk_p2.c.svn-base
Adding src/decompose_mesh/scotch/src/scotch/.svn/text-base/amk_m2.h.svn-base
Adding src/decompose_mesh/scotch/src/scotch/.svn/text-base/amk_m2.c.svn-base
Adding src/decompose_mesh/scotch/src/scotch/.svn/text-base/amk_hy.h.svn-base
Adding src/decompose_mesh/scotch/src/scotch/.svn/text-base/amk_hy.c.svn-base
Adding src/decompose_mesh/scotch/src/scotch/.svn/text-base/amk_grf.h.svn-base
Adding src/decompose_mesh/scotch/src/scotch/.svn/text-base/amk_grf.c.svn-base
Adding src/decompose_mesh/scotch/src/scotch/.svn/text-base/amk_fft2.h.svn-base
Adding src/decompose_mesh/scotch/src/scotch/.svn/text-base/amk_fft2.c.svn-base
Adding src/decompose_mesh/scotch/src/scotch/.svn/text-base/amk_ccc.h.svn-base
Adding src/decompose_mesh/scotch/src/scotch/.svn/text-base/amk_ccc.c.svn-base
Adding src/decompose_mesh/scotch/src/scotch/.svn/text-base/acpl.h.svn-base
Adding src/decompose_mesh/scotch/src/scotch/.svn/text-base/acpl.c.svn-base
Adding src/decompose_mesh/scotch/src/scotch/.svn/text-base/Makefile.svn-base
Adding src/decompose_mesh/scotch/src/scotch/.svn/entries
Adding src/decompose_mesh/scotch/src/scotch/.svn/all-wcprops
Adding src/decompose_mesh/scotch/src/libscotchmetis/parmetis_dgraph_part_f.c
Adding src/decompose_mesh/scotch/src/libscotchmetis/parmetis_dgraph_part.c
Adding src/decompose_mesh/scotch/src/libscotchmetis/parmetis_dgraph_order_f.c
Adding src/decompose_mesh/scotch/src/libscotchmetis/parmetis_dgraph_order.c
Adding src/decompose_mesh/scotch/src/libscotchmetis/parmetis.h
Adding src/decompose_mesh/scotch/src/libscotchmetis/metis_graph_part_f.c
Adding src/decompose_mesh/scotch/src/libscotchmetis/metis_graph_part.c
Adding src/decompose_mesh/scotch/src/libscotchmetis/metis_graph_order_f.c
Adding src/decompose_mesh/scotch/src/libscotchmetis/metis_graph_order.c
Adding src/decompose_mesh/scotch/src/libscotchmetis/metis.h
Adding src/decompose_mesh/scotch/src/libscotchmetis/Makefile
Adding src/decompose_mesh/scotch/src/libscotchmetis/.svn/text-base/parmetis_dgraph_part_f.c.svn-base
Adding src/decompose_mesh/scotch/src/libscotchmetis/.svn/text-base/parmetis_dgraph_part.c.svn-base
Adding src/decompose_mesh/scotch/src/libscotchmetis/.svn/text-base/parmetis_dgraph_order_f.c.svn-base
Adding src/decompose_mesh/scotch/src/libscotchmetis/.svn/text-base/parmetis_dgraph_order.c.svn-base
Adding src/decompose_mesh/scotch/src/libscotchmetis/.svn/text-base/parmetis.h.svn-base
Adding src/decompose_mesh/scotch/src/libscotchmetis/.svn/text-base/metis_graph_part_f.c.svn-base
Adding src/decompose_mesh/scotch/src/libscotchmetis/.svn/text-base/metis_graph_part.c.svn-base
Adding src/decompose_mesh/scotch/src/libscotchmetis/.svn/text-base/metis_graph_order_f.c.svn-base
Adding src/decompose_mesh/scotch/src/libscotchmetis/.svn/text-base/metis_graph_order.c.svn-base
Adding src/decompose_mesh/scotch/src/libscotchmetis/.svn/text-base/metis.h.svn-base
Adding src/decompose_mesh/scotch/src/libscotchmetis/.svn/text-base/Makefile.svn-base
Adding src/decompose_mesh/scotch/src/libscotchmetis/.svn/entries
Adding src/decompose_mesh/scotch/src/libscotchmetis/.svn/all-wcprops
Adding src/decompose_mesh/scotch/src/libscotch/vmesh_store.c
Adding src/decompose_mesh/scotch/src/libscotch/vmesh_separate_zr.h
Adding src/decompose_mesh/scotch/src/libscotch/vmesh_separate_zr.c
Adding src/decompose_mesh/scotch/src/libscotch/vmesh_separate_st.h
Adding src/decompose_mesh/scotch/src/libscotch/vmesh_separate_st.c
Adding src/decompose_mesh/scotch/src/libscotch/vmesh_separate_ml.h
Adding src/decompose_mesh/scotch/src/libscotch/vmesh_separate_ml.c
Adding src/decompose_mesh/scotch/src/libscotch/vmesh_separate_gr.h
Adding src/decompose_mesh/scotch/src/libscotch/vmesh_separate_gr.c
Adding src/decompose_mesh/scotch/src/libscotch/vmesh_separate_gg.h
Adding src/decompose_mesh/scotch/src/libscotch/vmesh_separate_gg.c
Adding src/decompose_mesh/scotch/src/libscotch/vmesh_separate_fm.h
Adding src/decompose_mesh/scotch/src/libscotch/vmesh_separate_fm.c
Adding src/decompose_mesh/scotch/src/libscotch/vmesh_check.c
Adding src/decompose_mesh/scotch/src/libscotch/vmesh.h
Adding src/decompose_mesh/scotch/src/libscotch/vmesh.c
Adding src/decompose_mesh/scotch/src/libscotch/vgraph_store.c
Adding src/decompose_mesh/scotch/src/libscotch/vgraph_separate_zr.h
Adding src/decompose_mesh/scotch/src/libscotch/vgraph_separate_zr.c
Adding src/decompose_mesh/scotch/src/libscotch/vgraph_separate_vw.h
Adding src/decompose_mesh/scotch/src/libscotch/vgraph_separate_vw.c
Adding src/decompose_mesh/scotch/src/libscotch/vgraph_separate_th.h
Adding src/decompose_mesh/scotch/src/libscotch/vgraph_separate_th.c
Adding src/decompose_mesh/scotch/src/libscotch/vgraph_separate_st.h
Adding src/decompose_mesh/scotch/src/libscotch/vgraph_separate_st.c
Adding src/decompose_mesh/scotch/src/libscotch/vgraph_separate_ml.h
Adding src/decompose_mesh/scotch/src/libscotch/vgraph_separate_ml.c
Adding src/decompose_mesh/scotch/src/libscotch/vgraph_separate_gp.h
Adding src/decompose_mesh/scotch/src/libscotch/vgraph_separate_gp.c
Adding src/decompose_mesh/scotch/src/libscotch/vgraph_separate_gg.h
Adding src/decompose_mesh/scotch/src/libscotch/vgraph_separate_gg.c
Adding src/decompose_mesh/scotch/src/libscotch/vgraph_separate_fm.h
Adding src/decompose_mesh/scotch/src/libscotch/vgraph_separate_fm.c
Adding src/decompose_mesh/scotch/src/libscotch/vgraph_separate_es.h
Adding src/decompose_mesh/scotch/src/libscotch/vgraph_separate_es.c
Adding src/decompose_mesh/scotch/src/libscotch/vgraph_separate_bd.h
Adding src/decompose_mesh/scotch/src/libscotch/vgraph_separate_bd.c
Adding src/decompose_mesh/scotch/src/libscotch/vgraph_check.c
Adding src/decompose_mesh/scotch/src/libscotch/vgraph.h
Adding src/decompose_mesh/scotch/src/libscotch/vgraph.c
Adding src/decompose_mesh/scotch/src/libscotch/vdgraph_store.c
Adding src/decompose_mesh/scotch/src/libscotch/vdgraph_separate_zr.h
Adding src/decompose_mesh/scotch/src/libscotch/vdgraph_separate_zr.c
Adding src/decompose_mesh/scotch/src/libscotch/vdgraph_separate_st.h
Adding src/decompose_mesh/scotch/src/libscotch/vdgraph_separate_st.c
Adding src/decompose_mesh/scotch/src/libscotch/vdgraph_separate_sq.h
Adding src/decompose_mesh/scotch/src/libscotch/vdgraph_separate_sq.c
Adding src/decompose_mesh/scotch/src/libscotch/vdgraph_separate_ml.h
Adding src/decompose_mesh/scotch/src/libscotch/vdgraph_separate_ml.c
Adding src/decompose_mesh/scotch/src/libscotch/vdgraph_separate_df.h
Adding src/decompose_mesh/scotch/src/libscotch/vdgraph_separate_df.c
Adding src/decompose_mesh/scotch/src/libscotch/vdgraph_separate_bd.h
Adding src/decompose_mesh/scotch/src/libscotch/vdgraph_separate_bd.c
Adding src/decompose_mesh/scotch/src/libscotch/vdgraph_gather_all.c
Adding src/decompose_mesh/scotch/src/libscotch/vdgraph_check.c
Adding src/decompose_mesh/scotch/src/libscotch/vdgraph.h
Adding src/decompose_mesh/scotch/src/libscotch/vdgraph.c
Adding src/decompose_mesh/scotch/src/libscotch/parser_yy.y
Adding src/decompose_mesh/scotch/src/libscotch/parser_yy.h
Adding src/decompose_mesh/scotch/src/libscotch/parser_ll.l
Adding src/decompose_mesh/scotch/src/libscotch/parser_ll.h
Adding src/decompose_mesh/scotch/src/libscotch/parser.h
Adding src/decompose_mesh/scotch/src/libscotch/parser.c
Adding src/decompose_mesh/scotch/src/libscotch/order_io.c
Adding src/decompose_mesh/scotch/src/libscotch/order_check.c
Adding src/decompose_mesh/scotch/src/libscotch/order.h
Adding src/decompose_mesh/scotch/src/libscotch/order.c
Adding src/decompose_mesh/scotch/src/libscotch/module.h
Adding src/decompose_mesh/scotch/src/libscotch/mesh_io_scot.c
Adding src/decompose_mesh/scotch/src/libscotch/mesh_io_habo.c
Adding src/decompose_mesh/scotch/src/libscotch/mesh_io.h
Adding src/decompose_mesh/scotch/src/libscotch/mesh_io.c
Adding src/decompose_mesh/scotch/src/libscotch/mesh_induce_sepa.h
Adding src/decompose_mesh/scotch/src/libscotch/mesh_induce_sepa.c
Adding src/decompose_mesh/scotch/src/libscotch/mesh_graph.h
Adding src/decompose_mesh/scotch/src/libscotch/mesh_graph.c
Adding src/decompose_mesh/scotch/src/libscotch/mesh_coarsen.h
Adding src/decompose_mesh/scotch/src/libscotch/mesh_coarsen.c
Adding src/decompose_mesh/scotch/src/libscotch/mesh_check.c
Adding src/decompose_mesh/scotch/src/libscotch/mesh.h
Adding src/decompose_mesh/scotch/src/libscotch/mesh.c
Adding src/decompose_mesh/scotch/src/libscotch/mapping_io.h
Adding src/decompose_mesh/scotch/src/libscotch/mapping_io.c
Adding src/decompose_mesh/scotch/src/libscotch/mapping.h
Adding src/decompose_mesh/scotch/src/libscotch/mapping.c
Adding src/decompose_mesh/scotch/src/libscotch/libraryf.h
Adding src/decompose_mesh/scotch/src/libscotch/library_version_f.c
Adding src/decompose_mesh/scotch/src/libscotch/library_version.c
Adding src/decompose_mesh/scotch/src/libscotch/library_strat.c
Adding src/decompose_mesh/scotch/src/libscotch/library_random_f.c
Adding src/decompose_mesh/scotch/src/libscotch/library_random.c
Adding src/decompose_mesh/scotch/src/libscotch/library_parser_f.c
Adding src/decompose_mesh/scotch/src/libscotch/library_parser.c
Adding src/decompose_mesh/scotch/src/libscotch/library_order.h
Adding src/decompose_mesh/scotch/src/libscotch/library_order.c
Adding src/decompose_mesh/scotch/src/libscotch/library_mesh_order_f.c
Adding src/decompose_mesh/scotch/src/libscotch/library_mesh_order.c
Adding src/decompose_mesh/scotch/src/libscotch/library_mesh_io_scot_f.c
Adding src/decompose_mesh/scotch/src/libscotch/library_mesh_io_scot.c
Adding src/decompose_mesh/scotch/src/libscotch/library_mesh_io_habo_f.c
Adding src/decompose_mesh/scotch/src/libscotch/library_mesh_io_habo.c
Adding src/decompose_mesh/scotch/src/libscotch/library_mesh_graph_f.c
Adding src/decompose_mesh/scotch/src/libscotch/library_mesh_graph.c
Adding src/decompose_mesh/scotch/src/libscotch/library_mesh_f.c
Adding src/decompose_mesh/scotch/src/libscotch/library_mesh.c
Adding src/decompose_mesh/scotch/src/libscotch/library_mapping.h
Adding src/decompose_mesh/scotch/src/libscotch/library_mapping.c
Adding src/decompose_mesh/scotch/src/libscotch/library_graph_order_f.c
Adding src/decompose_mesh/scotch/src/libscotch/library_graph_order.c
Adding src/decompose_mesh/scotch/src/libscotch/library_graph_map_view_f.c
Adding src/decompose_mesh/scotch/src/libscotch/library_graph_map_view.h
Adding src/decompose_mesh/scotch/src/libscotch/library_graph_map_view.c
Adding src/decompose_mesh/scotch/src/libscotch/library_graph_map_f.c
Adding src/decompose_mesh/scotch/src/libscotch/library_graph_map.c
Adding src/decompose_mesh/scotch/src/libscotch/library_graph_io_scot_f.c
Adding src/decompose_mesh/scotch/src/libscotch/library_graph_io_scot.c
Adding src/decompose_mesh/scotch/src/libscotch/library_graph_io_mmkt_f.c
Adding src/decompose_mesh/scotch/src/libscotch/library_graph_io_mmkt.c
Adding src/decompose_mesh/scotch/src/libscotch/library_graph_io_habo_f.c
Adding src/decompose_mesh/scotch/src/libscotch/library_graph_io_habo.c
Adding src/decompose_mesh/scotch/src/libscotch/library_graph_io_chac_f.c
Adding src/decompose_mesh/scotch/src/libscotch/library_graph_io_chac.c
Adding src/decompose_mesh/scotch/src/libscotch/library_graph_f.c
Adding src/decompose_mesh/scotch/src/libscotch/library_graph_coarsen_f.c
Adding src/decompose_mesh/scotch/src/libscotch/library_graph_coarsen.c
Adding src/decompose_mesh/scotch/src/libscotch/library_graph_check_f.c
Adding src/decompose_mesh/scotch/src/libscotch/library_graph_check.c
Adding src/decompose_mesh/scotch/src/libscotch/library_graph_base_f.c
Adding src/decompose_mesh/scotch/src/libscotch/library_graph_base.c
Adding src/decompose_mesh/scotch/src/libscotch/library_graph.c
Adding src/decompose_mesh/scotch/src/libscotch/library_geom_f.c
Adding src/decompose_mesh/scotch/src/libscotch/library_geom.c
Adding src/decompose_mesh/scotch/src/libscotch/library_error_exit.c
Adding src/decompose_mesh/scotch/src/libscotch/library_error.c
Adding src/decompose_mesh/scotch/src/libscotch/library_dorder.c
Adding src/decompose_mesh/scotch/src/libscotch/library_dmapping.h
Adding src/decompose_mesh/scotch/src/libscotch/library_dmapping.c
Adding src/decompose_mesh/scotch/src/libscotch/library_dgraph_stat_f.c
Adding src/decompose_mesh/scotch/src/libscotch/library_dgraph_stat.h
Adding src/decompose_mesh/scotch/src/libscotch/library_dgraph_stat.c
Adding src/decompose_mesh/scotch/src/libscotch/library_dgraph_scatter_f.c
Adding src/decompose_mesh/scotch/src/libscotch/library_dgraph_scatter.c
Adding src/decompose_mesh/scotch/src/libscotch/library_dgraph_order_tree_dist_f.c
Adding src/decompose_mesh/scotch/src/libscotch/library_dgraph_order_tree_dist.c
Adding src/decompose_mesh/scotch/src/libscotch/library_dgraph_order_perm_f.c
Adding src/decompose_mesh/scotch/src/libscotch/library_dgraph_order_perm.c
Adding src/decompose_mesh/scotch/src/libscotch/library_dgraph_order_io_f.c
Adding src/decompose_mesh/scotch/src/libscotch/library_dgraph_order_io_block_f.c
Adding src/decompose_mesh/scotch/src/libscotch/library_dgraph_order_io_block.c
Adding src/decompose_mesh/scotch/src/libscotch/library_dgraph_order_io.c
Adding src/decompose_mesh/scotch/src/libscotch/library_dgraph_order_gather_f.c
Adding src/decompose_mesh/scotch/src/libscotch/library_dgraph_order_gather.c
Adding src/decompose_mesh/scotch/src/libscotch/library_dgraph_order_f.c
Adding src/decompose_mesh/scotch/src/libscotch/library_dgraph_order.c
Adding src/decompose_mesh/scotch/src/libscotch/library_dgraph_map_view_f.c
Adding src/decompose_mesh/scotch/src/libscotch/library_dgraph_map_view.c
Adding src/decompose_mesh/scotch/src/libscotch/library_dgraph_map_f.c
Adding src/decompose_mesh/scotch/src/libscotch/library_dgraph_map.c
Adding src/decompose_mesh/scotch/src/libscotch/library_dgraph_io_save_f.c
Adding src/decompose_mesh/scotch/src/libscotch/library_dgraph_io_save.c
Adding src/decompose_mesh/scotch/src/libscotch/library_dgraph_io_load_f.c
Adding src/decompose_mesh/scotch/src/libscotch/library_dgraph_io_load.c
Adding src/decompose_mesh/scotch/src/libscotch/library_dgraph_halo_f.c
Adding src/decompose_mesh/scotch/src/libscotch/library_dgraph_halo.c
Adding src/decompose_mesh/scotch/src/libscotch/library_dgraph_gather_f.c
Adding src/decompose_mesh/scotch/src/libscotch/library_dgraph_gather.c
Adding src/decompose_mesh/scotch/src/libscotch/library_dgraph_f.c
Adding src/decompose_mesh/scotch/src/libscotch/library_dgraph_coarsen_f.c
Adding src/decompose_mesh/scotch/src/libscotch/library_dgraph_coarsen.c
Adding src/decompose_mesh/scotch/src/libscotch/library_dgraph_check_f.c
Adding src/decompose_mesh/scotch/src/libscotch/library_dgraph_check.c
Adding src/decompose_mesh/scotch/src/libscotch/library_dgraph_build_grid3d_f.c
Adding src/decompose_mesh/scotch/src/libscotch/library_dgraph_build_grid3d.c
Adding src/decompose_mesh/scotch/src/libscotch/library_dgraph_build_f.c
Adding src/decompose_mesh/scotch/src/libscotch/library_dgraph_build.c
Adding src/decompose_mesh/scotch/src/libscotch/library_dgraph.c
Adding src/decompose_mesh/scotch/src/libscotch/library_arch_f.c
Adding src/decompose_mesh/scotch/src/libscotch/library_arch_build_f.c
Adding src/decompose_mesh/scotch/src/libscotch/library_arch_build.c
Adding src/decompose_mesh/scotch/src/libscotch/library_arch.c
Adding src/decompose_mesh/scotch/src/libscotch/library.h
Adding src/decompose_mesh/scotch/src/libscotch/last_resort/parser_yy.c
Adding src/decompose_mesh/scotch/src/libscotch/last_resort/parser_ly.h
Adding src/decompose_mesh/scotch/src/libscotch/last_resort/parser_ll.c
Adding src/decompose_mesh/scotch/src/libscotch/last_resort/.svn/text-base/parser_yy.c.svn-base
Adding src/decompose_mesh/scotch/src/libscotch/last_resort/.svn/text-base/parser_ly.h.svn-base
Adding src/decompose_mesh/scotch/src/libscotch/last_resort/.svn/text-base/parser_ll.c.svn-base
Adding src/decompose_mesh/scotch/src/libscotch/last_resort/.svn/entries
Adding src/decompose_mesh/scotch/src/libscotch/last_resort/.svn/all-wcprops
Adding src/decompose_mesh/scotch/src/libscotch/kgraph_map_st.h
Adding src/decompose_mesh/scotch/src/libscotch/kgraph_map_st.c
Adding src/decompose_mesh/scotch/src/libscotch/kgraph_map_rb_part.h
Adding src/decompose_mesh/scotch/src/libscotch/kgraph_map_rb_part.c
Adding src/decompose_mesh/scotch/src/libscotch/kgraph_map_rb_map.h
Adding src/decompose_mesh/scotch/src/libscotch/kgraph_map_rb_map.c
Adding src/decompose_mesh/scotch/src/libscotch/kgraph_map_rb.h
Adding src/decompose_mesh/scotch/src/libscotch/kgraph_map_rb.c
Adding src/decompose_mesh/scotch/src/libscotch/kgraph_map_ml.h
Adding src/decompose_mesh/scotch/src/libscotch/kgraph_map_ml.c
Adding src/decompose_mesh/scotch/src/libscotch/kgraph_check.c
Adding src/decompose_mesh/scotch/src/libscotch/kgraph.h
Adding src/decompose_mesh/scotch/src/libscotch/kgraph.c
Adding src/decompose_mesh/scotch/src/libscotch/kdgraph_map_st.h
Adding src/decompose_mesh/scotch/src/libscotch/kdgraph_map_st.c
Adding src/decompose_mesh/scotch/src/libscotch/kdgraph_map_rb_part.h
Adding src/decompose_mesh/scotch/src/libscotch/kdgraph_map_rb_part.c
Adding src/decompose_mesh/scotch/src/libscotch/kdgraph_map_rb_map.h
Adding src/decompose_mesh/scotch/src/libscotch/kdgraph_map_rb_map.c
Adding src/decompose_mesh/scotch/src/libscotch/kdgraph_map_rb.h
Adding src/decompose_mesh/scotch/src/libscotch/kdgraph_map_rb.c
Adding src/decompose_mesh/scotch/src/libscotch/kdgraph.h
Adding src/decompose_mesh/scotch/src/libscotch/kdgraph.c
Adding src/decompose_mesh/scotch/src/libscotch/hmesh_order_st.h
Adding src/decompose_mesh/scotch/src/libscotch/hmesh_order_st.c
Adding src/decompose_mesh/scotch/src/libscotch/hmesh_order_si.h
Adding src/decompose_mesh/scotch/src/libscotch/hmesh_order_si.c
Adding src/decompose_mesh/scotch/src/libscotch/hmesh_order_nd.h
Adding src/decompose_mesh/scotch/src/libscotch/hmesh_order_nd.c
Adding src/decompose_mesh/scotch/src/libscotch/hmesh_order_hx.h
Adding src/decompose_mesh/scotch/src/libscotch/hmesh_order_hx.c
Adding src/decompose_mesh/scotch/src/libscotch/hmesh_order_hf.h
Adding src/decompose_mesh/scotch/src/libscotch/hmesh_order_hf.c
Adding src/decompose_mesh/scotch/src/libscotch/hmesh_order_hd.h
Adding src/decompose_mesh/scotch/src/libscotch/hmesh_order_hd.c
Adding src/decompose_mesh/scotch/src/libscotch/hmesh_order_gr.h
Adding src/decompose_mesh/scotch/src/libscotch/hmesh_order_gr.c
Adding src/decompose_mesh/scotch/src/libscotch/hmesh_order_gp.h
Adding src/decompose_mesh/scotch/src/libscotch/hmesh_order_gp.c
Adding src/decompose_mesh/scotch/src/libscotch/hmesh_order_cp.h
Adding src/decompose_mesh/scotch/src/libscotch/hmesh_order_cp.c
Adding src/decompose_mesh/scotch/src/libscotch/hmesh_order_bl.h
Adding src/decompose_mesh/scotch/src/libscotch/hmesh_order_bl.c
Adding src/decompose_mesh/scotch/src/libscotch/hmesh_mesh.c
Adding src/decompose_mesh/scotch/src/libscotch/hmesh_induce.h
Adding src/decompose_mesh/scotch/src/libscotch/hmesh_induce.c
Adding src/decompose_mesh/scotch/src/libscotch/hmesh_hgraph.h
Adding src/decompose_mesh/scotch/src/libscotch/hmesh_hgraph.c
Adding src/decompose_mesh/scotch/src/libscotch/hmesh_check.c
Adding src/decompose_mesh/scotch/src/libscotch/hmesh.h
Adding src/decompose_mesh/scotch/src/libscotch/hmesh.c
Adding src/decompose_mesh/scotch/src/libscotch/hgraph_order_st.h
Adding src/decompose_mesh/scotch/src/libscotch/hgraph_order_st.c
Adding src/decompose_mesh/scotch/src/libscotch/hgraph_order_si.h
Adding src/decompose_mesh/scotch/src/libscotch/hgraph_order_si.c
Adding src/decompose_mesh/scotch/src/libscotch/hgraph_order_nd.h
Adding src/decompose_mesh/scotch/src/libscotch/hgraph_order_nd.c
Adding src/decompose_mesh/scotch/src/libscotch/hgraph_order_hx.h
Adding src/decompose_mesh/scotch/src/libscotch/hgraph_order_hx.c
Adding src/decompose_mesh/scotch/src/libscotch/hgraph_order_hf.h
Adding src/decompose_mesh/scotch/src/libscotch/hgraph_order_hf.c
Adding src/decompose_mesh/scotch/src/libscotch/hgraph_order_hd.h
Adding src/decompose_mesh/scotch/src/libscotch/hgraph_order_hd.c
Adding src/decompose_mesh/scotch/src/libscotch/hgraph_order_gp.h
Adding src/decompose_mesh/scotch/src/libscotch/hgraph_order_gp.c
Adding src/decompose_mesh/scotch/src/libscotch/hgraph_order_cp.h
Adding src/decompose_mesh/scotch/src/libscotch/hgraph_order_cp.c
Adding src/decompose_mesh/scotch/src/libscotch/hgraph_order_bl.h
Adding src/decompose_mesh/scotch/src/libscotch/hgraph_order_bl.c
Adding src/decompose_mesh/scotch/src/libscotch/hgraph_induce_edge.c
Adding src/decompose_mesh/scotch/src/libscotch/hgraph_induce.h
Adding src/decompose_mesh/scotch/src/libscotch/hgraph_induce.c
Adding src/decompose_mesh/scotch/src/libscotch/hgraph_check.c
Adding src/decompose_mesh/scotch/src/libscotch/hgraph.h
Adding src/decompose_mesh/scotch/src/libscotch/hgraph.c
Adding src/decompose_mesh/scotch/src/libscotch/hdgraph_order_st.h
Adding src/decompose_mesh/scotch/src/libscotch/hdgraph_order_st.c
Adding src/decompose_mesh/scotch/src/libscotch/hdgraph_order_sq.h
Adding src/decompose_mesh/scotch/src/libscotch/hdgraph_order_sq.c
Adding src/decompose_mesh/scotch/src/libscotch/hdgraph_order_si.h
Adding src/decompose_mesh/scotch/src/libscotch/hdgraph_order_si.c
Adding src/decompose_mesh/scotch/src/libscotch/hdgraph_order_nd.h
Adding src/decompose_mesh/scotch/src/libscotch/hdgraph_order_nd.c
Adding src/decompose_mesh/scotch/src/libscotch/hdgraph_induce.c
Adding src/decompose_mesh/scotch/src/libscotch/hdgraph_gather.c
Adding src/decompose_mesh/scotch/src/libscotch/hdgraph_fold.h
Adding src/decompose_mesh/scotch/src/libscotch/hdgraph_fold.c
Adding src/decompose_mesh/scotch/src/libscotch/hdgraph_check.c
Adding src/decompose_mesh/scotch/src/libscotch/hdgraph.h
Adding src/decompose_mesh/scotch/src/libscotch/hdgraph.c
Adding src/decompose_mesh/scotch/src/libscotch/hall_order_hx.h
Adding src/decompose_mesh/scotch/src/libscotch/hall_order_hx.c
Adding src/decompose_mesh/scotch/src/libscotch/hall_order_hf.h
Adding src/decompose_mesh/scotch/src/libscotch/hall_order_hf.c
Adding src/decompose_mesh/scotch/src/libscotch/hall_order_hd.h
Adding src/decompose_mesh/scotch/src/libscotch/hall_order_hd.c
Adding src/decompose_mesh/scotch/src/libscotch/graph_list.h
Adding src/decompose_mesh/scotch/src/libscotch/graph_list.c
Adding src/decompose_mesh/scotch/src/libscotch/graph_io_scot.h
Adding src/decompose_mesh/scotch/src/libscotch/graph_io_scot.c
Adding src/decompose_mesh/scotch/src/libscotch/graph_io_mmkt.h
Adding src/decompose_mesh/scotch/src/libscotch/graph_io_mmkt.c
Adding src/decompose_mesh/scotch/src/libscotch/graph_io_habo.h
Adding src/decompose_mesh/scotch/src/libscotch/graph_io_habo.c
Adding src/decompose_mesh/scotch/src/libscotch/graph_io_chac.c
Adding src/decompose_mesh/scotch/src/libscotch/graph_io.h
Adding src/decompose_mesh/scotch/src/libscotch/graph_io.c
Adding src/decompose_mesh/scotch/src/libscotch/graph_induce.h
Adding src/decompose_mesh/scotch/src/libscotch/graph_induce.c
Adding src/decompose_mesh/scotch/src/libscotch/graph_coarsen_edge.c
Adding src/decompose_mesh/scotch/src/libscotch/graph_coarsen.h
Adding src/decompose_mesh/scotch/src/libscotch/graph_coarsen.c
Adding src/decompose_mesh/scotch/src/libscotch/graph_check.c
Adding src/decompose_mesh/scotch/src/libscotch/graph_base.c
Adding src/decompose_mesh/scotch/src/libscotch/graph.h
Adding src/decompose_mesh/scotch/src/libscotch/graph.c
Adding src/decompose_mesh/scotch/src/libscotch/geom.h
Adding src/decompose_mesh/scotch/src/libscotch/geom.c
Adding src/decompose_mesh/scotch/src/libscotch/gain.h
Adding src/decompose_mesh/scotch/src/libscotch/gain.c
Adding src/decompose_mesh/scotch/src/libscotch/dummysizes.c
Adding src/decompose_mesh/scotch/src/libscotch/dorder_tree_dist.c
Adding src/decompose_mesh/scotch/src/libscotch/dorder_perm.h
Adding src/decompose_mesh/scotch/src/libscotch/dorder_perm.c
Adding src/decompose_mesh/scotch/src/libscotch/dorder_io_tree.c
Adding src/decompose_mesh/scotch/src/libscotch/dorder_io_block.c
Adding src/decompose_mesh/scotch/src/libscotch/dorder_io.c
Adding src/decompose_mesh/scotch/src/libscotch/dorder_gather.h
Adding src/decompose_mesh/scotch/src/libscotch/dorder_gather.c
Adding src/decompose_mesh/scotch/src/libscotch/dorder.h
Adding src/decompose_mesh/scotch/src/libscotch/dorder.c
Adding src/decompose_mesh/scotch/src/libscotch/dmapping_io.c
Adding src/decompose_mesh/scotch/src/libscotch/dmapping.h
Adding src/decompose_mesh/scotch/src/libscotch/dmapping.c
Adding src/decompose_mesh/scotch/src/libscotch/dgraph_view.c
Adding src/decompose_mesh/scotch/src/libscotch/dgraph_scatter.c
Adding src/decompose_mesh/scotch/src/libscotch/dgraph_match_sync_ptop.c
Adding src/decompose_mesh/scotch/src/libscotch/dgraph_match_sync_coll.c
Adding src/decompose_mesh/scotch/src/libscotch/dgraph_match_scan.c
Adding src/decompose_mesh/scotch/src/libscotch/dgraph_match_check.c
Adding src/decompose_mesh/scotch/src/libscotch/dgraph_match.h
Adding src/decompose_mesh/scotch/src/libscotch/dgraph_match.c
Adding src/decompose_mesh/scotch/src/libscotch/dgraph_io_save.c
Adding src/decompose_mesh/scotch/src/libscotch/dgraph_io_load.h
Adding src/decompose_mesh/scotch/src/libscotch/dgraph_io_load.c
Adding src/decompose_mesh/scotch/src/libscotch/dgraph_induce.c
Adding src/decompose_mesh/scotch/src/libscotch/dgraph_halo_fill.c
Adding src/decompose_mesh/scotch/src/libscotch/dgraph_halo.h
Adding src/decompose_mesh/scotch/src/libscotch/dgraph_halo.c
Adding src/decompose_mesh/scotch/src/libscotch/dgraph_ghst.h
Adding src/decompose_mesh/scotch/src/libscotch/dgraph_ghst.c
Adding src/decompose_mesh/scotch/src/libscotch/dgraph_gather_all.c
Adding src/decompose_mesh/scotch/src/libscotch/dgraph_gather.c
Adding src/decompose_mesh/scotch/src/libscotch/dgraph_fold_dup.h
Adding src/decompose_mesh/scotch/src/libscotch/dgraph_fold_dup.c
Adding src/decompose_mesh/scotch/src/libscotch/dgraph_fold_comm.h
Adding src/decompose_mesh/scotch/src/libscotch/dgraph_fold_comm.c
Adding src/decompose_mesh/scotch/src/libscotch/dgraph_fold.h
Adding src/decompose_mesh/scotch/src/libscotch/dgraph_fold.c
Adding src/decompose_mesh/scotch/src/libscotch/dgraph_coarsen_edge.c
Adding src/decompose_mesh/scotch/src/libscotch/dgraph_coarsen.h
Adding src/decompose_mesh/scotch/src/libscotch/dgraph_coarsen.c
Adding src/decompose_mesh/scotch/src/libscotch/dgraph_check.c
Adding src/decompose_mesh/scotch/src/libscotch/dgraph_build_hcub.c
Adding src/decompose_mesh/scotch/src/libscotch/dgraph_build_grid3d.h
Adding src/decompose_mesh/scotch/src/libscotch/dgraph_build_grid3d.c
Adding src/decompose_mesh/scotch/src/libscotch/dgraph_build.h
Adding src/decompose_mesh/scotch/src/libscotch/dgraph_build.c
Adding src/decompose_mesh/scotch/src/libscotch/dgraph_band.c
Adding src/decompose_mesh/scotch/src/libscotch/dgraph_allreduce.h
Adding src/decompose_mesh/scotch/src/libscotch/dgraph_allreduce.c
Adding src/decompose_mesh/scotch/src/libscotch/dgraph.h
Adding src/decompose_mesh/scotch/src/libscotch/dgraph.c
Adding src/decompose_mesh/scotch/src/libscotch/common_stub.c
Adding src/decompose_mesh/scotch/src/libscotch/common_string.c
Adding src/decompose_mesh/scotch/src/libscotch/common_sort.c
Adding src/decompose_mesh/scotch/src/libscotch/common_memory.c
Adding src/decompose_mesh/scotch/src/libscotch/common_integer.c
Adding src/decompose_mesh/scotch/src/libscotch/common_file_uncompress.c
Adding src/decompose_mesh/scotch/src/libscotch/common_file_compress.h
Adding src/decompose_mesh/scotch/src/libscotch/common_file_compress.c
Adding src/decompose_mesh/scotch/src/libscotch/common_file.h
Adding src/decompose_mesh/scotch/src/libscotch/common_file.c
Adding src/decompose_mesh/scotch/src/libscotch/common.h
Adding src/decompose_mesh/scotch/src/libscotch/common.c
Adding src/decompose_mesh/scotch/src/libscotch/comm.h
Adding src/decompose_mesh/scotch/src/libscotch/comm.c
Adding src/decompose_mesh/scotch/src/libscotch/bgraph_store.c
Adding src/decompose_mesh/scotch/src/libscotch/bgraph_check.c
Adding src/decompose_mesh/scotch/src/libscotch/bgraph_bipart_zr.h
Adding src/decompose_mesh/scotch/src/libscotch/bgraph_bipart_zr.c
Adding src/decompose_mesh/scotch/src/libscotch/bgraph_bipart_st.h
Adding src/decompose_mesh/scotch/src/libscotch/bgraph_bipart_st.c
Adding src/decompose_mesh/scotch/src/libscotch/bgraph_bipart_ml.h
Adding src/decompose_mesh/scotch/src/libscotch/bgraph_bipart_ml.c
Adding src/decompose_mesh/scotch/src/libscotch/bgraph_bipart_gp.h
Adding src/decompose_mesh/scotch/src/libscotch/bgraph_bipart_gp.c
Adding src/decompose_mesh/scotch/src/libscotch/bgraph_bipart_gg.h
Adding src/decompose_mesh/scotch/src/libscotch/bgraph_bipart_gg.c
Adding src/decompose_mesh/scotch/src/libscotch/bgraph_bipart_fm.h
Adding src/decompose_mesh/scotch/src/libscotch/bgraph_bipart_fm.c
Adding src/decompose_mesh/scotch/src/libscotch/bgraph_bipart_ex.h
Adding src/decompose_mesh/scotch/src/libscotch/bgraph_bipart_ex.c
Adding src/decompose_mesh/scotch/src/libscotch/bgraph_bipart_df.h
Adding src/decompose_mesh/scotch/src/libscotch/bgraph_bipart_df.c
Adding src/decompose_mesh/scotch/src/libscotch/bgraph_bipart_bd.h
Adding src/decompose_mesh/scotch/src/libscotch/bgraph_bipart_bd.c
Adding src/decompose_mesh/scotch/src/libscotch/bgraph.h
Adding src/decompose_mesh/scotch/src/libscotch/bgraph.c
Adding src/decompose_mesh/scotch/src/libscotch/bdgraph_store.c
Adding src/decompose_mesh/scotch/src/libscotch/bdgraph_gather_all.c
Adding src/decompose_mesh/scotch/src/libscotch/bdgraph_check.c
Adding src/decompose_mesh/scotch/src/libscotch/bdgraph_bipart_zr.h
Adding src/decompose_mesh/scotch/src/libscotch/bdgraph_bipart_zr.c
Adding src/decompose_mesh/scotch/src/libscotch/bdgraph_bipart_st.h
Adding src/decompose_mesh/scotch/src/libscotch/bdgraph_bipart_st.c
Adding src/decompose_mesh/scotch/src/libscotch/bdgraph_bipart_sq.h
Adding src/decompose_mesh/scotch/src/libscotch/bdgraph_bipart_sq.c
Adding src/decompose_mesh/scotch/src/libscotch/bdgraph_bipart_ml.h
Adding src/decompose_mesh/scotch/src/libscotch/bdgraph_bipart_ml.c
Adding src/decompose_mesh/scotch/src/libscotch/bdgraph_bipart_ex.h
Adding src/decompose_mesh/scotch/src/libscotch/bdgraph_bipart_ex.c
Adding src/decompose_mesh/scotch/src/libscotch/bdgraph_bipart_df.h
Adding src/decompose_mesh/scotch/src/libscotch/bdgraph_bipart_df.c
Adding src/decompose_mesh/scotch/src/libscotch/bdgraph_bipart_bd.h
Adding src/decompose_mesh/scotch/src/libscotch/bdgraph_bipart_bd.c
Adding src/decompose_mesh/scotch/src/libscotch/bdgraph.h
Adding src/decompose_mesh/scotch/src/libscotch/bdgraph.c
Adding src/decompose_mesh/scotch/src/libscotch/arch_vhcub.h
Adding src/decompose_mesh/scotch/src/libscotch/arch_vhcub.c
Adding src/decompose_mesh/scotch/src/libscotch/arch_vcmplt.h
Adding src/decompose_mesh/scotch/src/libscotch/arch_vcmplt.c
Adding src/decompose_mesh/scotch/src/libscotch/arch_torus.h
Adding src/decompose_mesh/scotch/src/libscotch/arch_torus.c
Adding src/decompose_mesh/scotch/src/libscotch/arch_tleaf.h
Adding src/decompose_mesh/scotch/src/libscotch/arch_tleaf.c
Adding src/decompose_mesh/scotch/src/libscotch/arch_mesh.h
Adding src/decompose_mesh/scotch/src/libscotch/arch_mesh.c
Adding src/decompose_mesh/scotch/src/libscotch/arch_hcub.h
Adding src/decompose_mesh/scotch/src/libscotch/arch_hcub.c
Adding src/decompose_mesh/scotch/src/libscotch/arch_deco.h
Adding src/decompose_mesh/scotch/src/libscotch/arch_deco.c
Adding src/decompose_mesh/scotch/src/libscotch/arch_cmpltw.h
Adding src/decompose_mesh/scotch/src/libscotch/arch_cmpltw.c
Adding src/decompose_mesh/scotch/src/libscotch/arch_cmplt.h
Adding src/decompose_mesh/scotch/src/libscotch/arch_cmplt.c
Adding src/decompose_mesh/scotch/src/libscotch/arch_build.h
Adding src/decompose_mesh/scotch/src/libscotch/arch_build.c
Adding src/decompose_mesh/scotch/src/libscotch/arch.h
Adding src/decompose_mesh/scotch/src/libscotch/arch.c
Adding src/decompose_mesh/scotch/src/libscotch/Makefile
Adding src/decompose_mesh/scotch/src/libscotch/.svn/text-base/vmesh_store.c.svn-base
Adding src/decompose_mesh/scotch/src/libscotch/.svn/text-base/vmesh_separate_zr.h.svn-base
Adding src/decompose_mesh/scotch/src/libscotch/.svn/text-base/vmesh_separate_zr.c.svn-base
Adding src/decompose_mesh/scotch/src/libscotch/.svn/text-base/vmesh_separate_st.h.svn-base
Adding src/decompose_mesh/scotch/src/libscotch/.svn/text-base/vmesh_separate_st.c.svn-base
Adding src/decompose_mesh/scotch/src/libscotch/.svn/text-base/vmesh_separate_ml.h.svn-base
Adding src/decompose_mesh/scotch/src/libscotch/.svn/text-base/vmesh_separate_ml.c.svn-base
Adding src/decompose_mesh/scotch/src/libscotch/.svn/text-base/vmesh_separate_gr.h.svn-base
Adding src/decompose_mesh/scotch/src/libscotch/.svn/text-base/vmesh_separate_gr.c.svn-base
Adding src/decompose_mesh/scotch/src/libscotch/.svn/text-base/vmesh_separate_gg.h.svn-base
Adding src/decompose_mesh/scotch/src/libscotch/.svn/text-base/vmesh_separate_gg.c.svn-base
Adding src/decompose_mesh/scotch/src/libscotch/.svn/text-base/vmesh_separate_fm.h.svn-base
Adding src/decompose_mesh/scotch/src/libscotch/.svn/text-base/vmesh_separate_fm.c.svn-base
Adding src/decompose_mesh/scotch/src/libscotch/.svn/text-base/vmesh_check.c.svn-base
Adding src/decompose_mesh/scotch/src/libscotch/.svn/text-base/vmesh.h.svn-base
Adding src/decompose_mesh/scotch/src/libscotch/.svn/text-base/vmesh.c.svn-base
Adding src/decompose_mesh/scotch/src/libscotch/.svn/text-base/vgraph_store.c.svn-base
Adding src/decompose_mesh/scotch/src/libscotch/.svn/text-base/vgraph_separate_zr.h.svn-base
Adding src/decompose_mesh/scotch/src/libscotch/.svn/text-base/vgraph_separate_zr.c.svn-base
Adding src/decompose_mesh/scotch/src/libscotch/.svn/text-base/vgraph_separate_vw.h.svn-base
Adding src/decompose_mesh/scotch/src/libscotch/.svn/text-base/vgraph_separate_vw.c.svn-base
Adding src/decompose_mesh/scotch/src/libscotch/.svn/text-base/vgraph_separate_th.h.svn-base
Adding src/decompose_mesh/scotch/src/libscotch/.svn/text-base/vgraph_separate_th.c.svn-base
Adding src/decompose_mesh/scotch/src/libscotch/.svn/text-base/vgraph_separate_st.h.svn-base
Adding src/decompose_mesh/scotch/src/libscotch/.svn/text-base/vgraph_separate_st.c.svn-base
Adding src/decompose_mesh/scotch/src/libscotch/.svn/text-base/vgraph_separate_ml.h.svn-base
Adding src/decompose_mesh/scotch/src/libscotch/.svn/text-base/vgraph_separate_ml.c.svn-base
Adding src/decompose_mesh/scotch/src/libscotch/.svn/text-base/vgraph_separate_gp.h.svn-base
Adding src/decompose_mesh/scotch/src/libscotch/.svn/text-base/vgraph_separate_gp.c.svn-base
Adding src/decompose_mesh/scotch/src/libscotch/.svn/text-base/vgraph_separate_gg.h.svn-base
Adding src/decompose_mesh/scotch/src/libscotch/.svn/text-base/vgraph_separate_gg.c.svn-base
Adding src/decompose_mesh/scotch/src/libscotch/.svn/text-base/vgraph_separate_fm.h.svn-base
Adding src/decompose_mesh/scotch/src/libscotch/.svn/text-base/vgraph_separate_fm.c.svn-base
Adding src/decompose_mesh/scotch/src/libscotch/.svn/text-base/vgraph_separate_es.h.svn-base
Adding src/decompose_mesh/scotch/src/libscotch/.svn/text-base/vgraph_separate_es.c.svn-base
Adding src/decompose_mesh/scotch/src/libscotch/.svn/text-base/vgraph_separate_bd.h.svn-base
Adding src/decompose_mesh/scotch/src/libscotch/.svn/text-base/vgraph_separate_bd.c.svn-base
Adding src/decompose_mesh/scotch/src/libscotch/.svn/text-base/vgraph_check.c.svn-base
Adding src/decompose_mesh/scotch/src/libscotch/.svn/text-base/vgraph.h.svn-base
Adding src/decompose_mesh/scotch/src/libscotch/.svn/text-base/vgraph.c.svn-base
Adding src/decompose_mesh/scotch/src/libscotch/.svn/text-base/vdgraph_store.c.svn-base
Adding src/decompose_mesh/scotch/src/libscotch/.svn/text-base/vdgraph_separate_zr.h.svn-base
Adding src/decompose_mesh/scotch/src/libscotch/.svn/text-base/vdgraph_separate_zr.c.svn-base
Adding src/decompose_mesh/scotch/src/libscotch/.svn/text-base/vdgraph_separate_st.h.svn-base
Adding src/decompose_mesh/scotch/src/libscotch/.svn/text-base/vdgraph_separate_st.c.svn-base
Adding src/decompose_mesh/scotch/src/libscotch/.svn/text-base/vdgraph_separate_sq.h.svn-base
Adding src/decompose_mesh/scotch/src/libscotch/.svn/text-base/vdgraph_separate_sq.c.svn-base
Adding src/decompose_mesh/scotch/src/libscotch/.svn/text-base/vdgraph_separate_ml.h.svn-base
Adding src/decompose_mesh/scotch/src/libscotch/.svn/text-base/vdgraph_separate_ml.c.svn-base
Adding src/decompose_mesh/scotch/src/libscotch/.svn/text-base/vdgraph_separate_df.h.svn-base
Adding src/decompose_mesh/scotch/src/libscotch/.svn/text-base/vdgraph_separate_df.c.svn-base
Adding src/decompose_mesh/scotch/src/libscotch/.svn/text-base/vdgraph_separate_bd.h.svn-base
Adding src/decompose_mesh/scotch/src/libscotch/.svn/text-base/vdgraph_separate_bd.c.svn-base
Adding src/decompose_mesh/scotch/src/libscotch/.svn/text-base/vdgraph_gather_all.c.svn-base
Adding src/decompose_mesh/scotch/src/libscotch/.svn/text-base/vdgraph_check.c.svn-base
Adding src/decompose_mesh/scotch/src/libscotch/.svn/text-base/vdgraph.h.svn-base
Adding src/decompose_mesh/scotch/src/libscotch/.svn/text-base/vdgraph.c.svn-base
Adding src/decompose_mesh/scotch/src/libscotch/.svn/text-base/parser_yy.y.svn-base
Adding src/decompose_mesh/scotch/src/libscotch/.svn/text-base/parser_yy.h.svn-base
Adding src/decompose_mesh/scotch/src/libscotch/.svn/text-base/parser_ll.l.svn-base
Adding src/decompose_mesh/scotch/src/libscotch/.svn/text-base/parser_ll.h.svn-base
Adding src/decompose_mesh/scotch/src/libscotch/.svn/text-base/parser.h.svn-base
Adding src/decompose_mesh/scotch/src/libscotch/.svn/text-base/parser.c.svn-base
Adding src/decompose_mesh/scotch/src/libscotch/.svn/text-base/order_io.c.svn-base
Adding src/decompose_mesh/scotch/src/libscotch/.svn/text-base/order_check.c.svn-base
Adding src/decompose_mesh/scotch/src/libscotch/.svn/text-base/order.h.svn-base
Adding src/decompose_mesh/scotch/src/libscotch/.svn/text-base/order.c.svn-base
Adding src/decompose_mesh/scotch/src/libscotch/.svn/text-base/module.h.svn-base
Adding src/decompose_mesh/scotch/src/libscotch/.svn/text-base/mesh_io_scot.c.svn-base
Adding src/decompose_mesh/scotch/src/libscotch/.svn/text-base/mesh_io_habo.c.svn-base
Adding src/decompose_mesh/scotch/src/libscotch/.svn/text-base/mesh_io.h.svn-base
Adding src/decompose_mesh/scotch/src/libscotch/.svn/text-base/mesh_io.c.svn-base
Adding src/decompose_mesh/scotch/src/libscotch/.svn/text-base/mesh_induce_sepa.h.svn-base
Adding src/decompose_mesh/scotch/src/libscotch/.svn/text-base/mesh_induce_sepa.c.svn-base
Adding src/decompose_mesh/scotch/src/libscotch/.svn/text-base/mesh_graph.h.svn-base
Adding src/decompose_mesh/scotch/src/libscotch/.svn/text-base/mesh_graph.c.svn-base
Adding src/decompose_mesh/scotch/src/libscotch/.svn/text-base/mesh_coarsen.h.svn-base
Adding src/decompose_mesh/scotch/src/libscotch/.svn/text-base/mesh_coarsen.c.svn-base
Adding src/decompose_mesh/scotch/src/libscotch/.svn/text-base/mesh_check.c.svn-base
Adding src/decompose_mesh/scotch/src/libscotch/.svn/text-base/mesh.h.svn-base
Adding src/decompose_mesh/scotch/src/libscotch/.svn/text-base/mesh.c.svn-base
Adding src/decompose_mesh/scotch/src/libscotch/.svn/text-base/mapping_io.h.svn-base
Adding src/decompose_mesh/scotch/src/libscotch/.svn/text-base/mapping_io.c.svn-base
Adding src/decompose_mesh/scotch/src/libscotch/.svn/text-base/mapping.h.svn-base
Adding src/decompose_mesh/scotch/src/libscotch/.svn/text-base/mapping.c.svn-base
Adding src/decompose_mesh/scotch/src/libscotch/.svn/text-base/libraryf.h.svn-base
Adding src/decompose_mesh/scotch/src/libscotch/.svn/text-base/library_version_f.c.svn-base
Adding src/decompose_mesh/scotch/src/libscotch/.svn/text-base/library_version.c.svn-base
Adding src/decompose_mesh/scotch/src/libscotch/.svn/text-base/library_strat.c.svn-base
Adding src/decompose_mesh/scotch/src/libscotch/.svn/text-base/library_random_f.c.svn-base
Adding src/decompose_mesh/scotch/src/libscotch/.svn/text-base/library_random.c.svn-base
Adding src/decompose_mesh/scotch/src/libscotch/.svn/text-base/library_parser_f.c.svn-base
Adding src/decompose_mesh/scotch/src/libscotch/.svn/text-base/library_parser.c.svn-base
Adding src/decompose_mesh/scotch/src/libscotch/.svn/text-base/library_order.h.svn-base
Adding src/decompose_mesh/scotch/src/libscotch/.svn/text-base/library_order.c.svn-base
Adding src/decompose_mesh/scotch/src/libscotch/.svn/text-base/library_mesh_order_f.c.svn-base
Adding src/decompose_mesh/scotch/src/libscotch/.svn/text-base/library_mesh_order.c.svn-base
Adding src/decompose_mesh/scotch/src/libscotch/.svn/text-base/library_mesh_io_scot_f.c.svn-base
Adding src/decompose_mesh/scotch/src/libscotch/.svn/text-base/library_mesh_io_scot.c.svn-base
Adding src/decompose_mesh/scotch/src/libscotch/.svn/text-base/library_mesh_io_habo_f.c.svn-base
Adding src/decompose_mesh/scotch/src/libscotch/.svn/text-base/library_mesh_io_habo.c.svn-base
Adding src/decompose_mesh/scotch/src/libscotch/.svn/text-base/library_mesh_graph_f.c.svn-base
Adding src/decompose_mesh/scotch/src/libscotch/.svn/text-base/library_mesh_graph.c.svn-base
Adding src/decompose_mesh/scotch/src/libscotch/.svn/text-base/library_mesh_f.c.svn-base
Adding src/decompose_mesh/scotch/src/libscotch/.svn/text-base/library_mesh.c.svn-base
Adding src/decompose_mesh/scotch/src/libscotch/.svn/text-base/library_mapping.h.svn-base
Adding src/decompose_mesh/scotch/src/libscotch/.svn/text-base/library_mapping.c.svn-base
Adding src/decompose_mesh/scotch/src/libscotch/.svn/text-base/library_graph_order_f.c.svn-base
Adding src/decompose_mesh/scotch/src/libscotch/.svn/text-base/library_graph_order.c.svn-base
Adding src/decompose_mesh/scotch/src/libscotch/.svn/text-base/library_graph_map_view_f.c.svn-base
Adding src/decompose_mesh/scotch/src/libscotch/.svn/text-base/library_graph_map_view.h.svn-base
Adding src/decompose_mesh/scotch/src/libscotch/.svn/text-base/library_graph_map_view.c.svn-base
Adding src/decompose_mesh/scotch/src/libscotch/.svn/text-base/library_graph_map_f.c.svn-base
Adding src/decompose_mesh/scotch/src/libscotch/.svn/text-base/library_graph_map.c.svn-base
Adding src/decompose_mesh/scotch/src/libscotch/.svn/text-base/library_graph_io_scot_f.c.svn-base
Adding src/decompose_mesh/scotch/src/libscotch/.svn/text-base/library_graph_io_scot.c.svn-base
Adding src/decompose_mesh/scotch/src/libscotch/.svn/text-base/library_graph_io_mmkt_f.c.svn-base
Adding src/decompose_mesh/scotch/src/libscotch/.svn/text-base/library_graph_io_mmkt.c.svn-base
Adding src/decompose_mesh/scotch/src/libscotch/.svn/text-base/library_graph_io_habo_f.c.svn-base
Adding src/decompose_mesh/scotch/src/libscotch/.svn/text-base/library_graph_io_habo.c.svn-base
Adding src/decompose_mesh/scotch/src/libscotch/.svn/text-base/library_graph_io_chac_f.c.svn-base
Adding src/decompose_mesh/scotch/src/libscotch/.svn/text-base/library_graph_io_chac.c.svn-base
Adding src/decompose_mesh/scotch/src/libscotch/.svn/text-base/library_graph_f.c.svn-base
Adding src/decompose_mesh/scotch/src/libscotch/.svn/text-base/library_graph_coarsen_f.c.svn-base
Adding src/decompose_mesh/scotch/src/libscotch/.svn/text-base/library_graph_coarsen.c.svn-base
Adding src/decompose_mesh/scotch/src/libscotch/.svn/text-base/library_graph_check_f.c.svn-base
Adding src/decompose_mesh/scotch/src/libscotch/.svn/text-base/library_graph_check.c.svn-base
Adding src/decompose_mesh/scotch/src/libscotch/.svn/text-base/library_graph_base_f.c.svn-base
Adding src/decompose_mesh/scotch/src/libscotch/.svn/text-base/library_graph_base.c.svn-base
Adding src/decompose_mesh/scotch/src/libscotch/.svn/text-base/library_graph.c.svn-base
Adding src/decompose_mesh/scotch/src/libscotch/.svn/text-base/library_geom_f.c.svn-base
Adding src/decompose_mesh/scotch/src/libscotch/.svn/text-base/library_geom.c.svn-base
Adding src/decompose_mesh/scotch/src/libscotch/.svn/text-base/library_error_exit.c.svn-base
Adding src/decompose_mesh/scotch/src/libscotch/.svn/text-base/library_error.c.svn-base
Adding src/decompose_mesh/scotch/src/libscotch/.svn/text-base/library_dorder.c.svn-base
Adding src/decompose_mesh/scotch/src/libscotch/.svn/text-base/library_dmapping.h.svn-base
Adding src/decompose_mesh/scotch/src/libscotch/.svn/text-base/library_dmapping.c.svn-base
Adding src/decompose_mesh/scotch/src/libscotch/.svn/text-base/library_dgraph_stat_f.c.svn-base
Adding src/decompose_mesh/scotch/src/libscotch/.svn/text-base/library_dgraph_stat.h.svn-base
Adding src/decompose_mesh/scotch/src/libscotch/.svn/text-base/library_dgraph_stat.c.svn-base
Adding src/decompose_mesh/scotch/src/libscotch/.svn/text-base/library_dgraph_scatter_f.c.svn-base
Adding src/decompose_mesh/scotch/src/libscotch/.svn/text-base/library_dgraph_scatter.c.svn-base
Adding src/decompose_mesh/scotch/src/libscotch/.svn/text-base/library_dgraph_order_tree_dist_f.c.svn-base
Adding src/decompose_mesh/scotch/src/libscotch/.svn/text-base/library_dgraph_order_tree_dist.c.svn-base
Adding src/decompose_mesh/scotch/src/libscotch/.svn/text-base/library_dgraph_order_perm_f.c.svn-base
Adding src/decompose_mesh/scotch/src/libscotch/.svn/text-base/library_dgraph_order_perm.c.svn-base
Adding src/decompose_mesh/scotch/src/libscotch/.svn/text-base/library_dgraph_order_io_f.c.svn-base
Adding src/decompose_mesh/scotch/src/libscotch/.svn/text-base/library_dgraph_order_io_block_f.c.svn-base
Adding src/decompose_mesh/scotch/src/libscotch/.svn/text-base/library_dgraph_order_io_block.c.svn-base
Adding src/decompose_mesh/scotch/src/libscotch/.svn/text-base/library_dgraph_order_io.c.svn-base
Adding src/decompose_mesh/scotch/src/libscotch/.svn/text-base/library_dgraph_order_gather_f.c.svn-base
Adding src/decompose_mesh/scotch/src/libscotch/.svn/text-base/library_dgraph_order_gather.c.svn-base
Adding src/decompose_mesh/scotch/src/libscotch/.svn/text-base/library_dgraph_order_f.c.svn-base
Adding src/decompose_mesh/scotch/src/libscotch/.svn/text-base/library_dgraph_order.c.svn-base
Adding src/decompose_mesh/scotch/src/libscotch/.svn/text-base/library_dgraph_map_view_f.c.svn-base
Adding src/decompose_mesh/scotch/src/libscotch/.svn/text-base/library_dgraph_map_view.c.svn-base
Adding src/decompose_mesh/scotch/src/libscotch/.svn/text-base/library_dgraph_map_f.c.svn-base
Adding src/decompose_mesh/scotch/src/libscotch/.svn/text-base/library_dgraph_map.c.svn-base
Adding src/decompose_mesh/scotch/src/libscotch/.svn/text-base/library_dgraph_io_save_f.c.svn-base
Adding src/decompose_mesh/scotch/src/libscotch/.svn/text-base/library_dgraph_io_save.c.svn-base
Adding src/decompose_mesh/scotch/src/libscotch/.svn/text-base/library_dgraph_io_load_f.c.svn-base
Adding src/decompose_mesh/scotch/src/libscotch/.svn/text-base/library_dgraph_io_load.c.svn-base
Adding src/decompose_mesh/scotch/src/libscotch/.svn/text-base/library_dgraph_halo_f.c.svn-base
Adding src/decompose_mesh/scotch/src/libscotch/.svn/text-base/library_dgraph_halo.c.svn-base
Adding src/decompose_mesh/scotch/src/libscotch/.svn/text-base/library_dgraph_gather_f.c.svn-base
Adding src/decompose_mesh/scotch/src/libscotch/.svn/text-base/library_dgraph_gather.c.svn-base
Adding src/decompose_mesh/scotch/src/libscotch/.svn/text-base/library_dgraph_f.c.svn-base
Adding src/decompose_mesh/scotch/src/libscotch/.svn/text-base/library_dgraph_coarsen_f.c.svn-base
Adding src/decompose_mesh/scotch/src/libscotch/.svn/text-base/library_dgraph_coarsen.c.svn-base
Adding src/decompose_mesh/scotch/src/libscotch/.svn/text-base/library_dgraph_check_f.c.svn-base
Adding src/decompose_mesh/scotch/src/libscotch/.svn/text-base/library_dgraph_check.c.svn-base
Adding src/decompose_mesh/scotch/src/libscotch/.svn/text-base/library_dgraph_build_grid3d_f.c.svn-base
Adding src/decompose_mesh/scotch/src/libscotch/.svn/text-base/library_dgraph_build_grid3d.c.svn-base
Adding src/decompose_mesh/scotch/src/libscotch/.svn/text-base/library_dgraph_build_f.c.svn-base
Adding src/decompose_mesh/scotch/src/libscotch/.svn/text-base/library_dgraph_build.c.svn-base
Adding src/decompose_mesh/scotch/src/libscotch/.svn/text-base/library_dgraph.c.svn-base
Adding src/decompose_mesh/scotch/src/libscotch/.svn/text-base/library_arch_f.c.svn-base
Adding src/decompose_mesh/scotch/src/libscotch/.svn/text-base/library_arch_build_f.c.svn-base
Adding src/decompose_mesh/scotch/src/libscotch/.svn/text-base/library_arch_build.c.svn-base
Adding src/decompose_mesh/scotch/src/libscotch/.svn/text-base/library_arch.c.svn-base
Adding src/decompose_mesh/scotch/src/libscotch/.svn/text-base/library.h.svn-base
Adding src/decompose_mesh/scotch/src/libscotch/.svn/text-base/kgraph_map_st.h.svn-base
Adding src/decompose_mesh/scotch/src/libscotch/.svn/text-base/kgraph_map_st.c.svn-base
Adding src/decompose_mesh/scotch/src/libscotch/.svn/text-base/kgraph_map_rb_part.h.svn-base
Adding src/decompose_mesh/scotch/src/libscotch/.svn/text-base/kgraph_map_rb_part.c.svn-base
Adding src/decompose_mesh/scotch/src/libscotch/.svn/text-base/kgraph_map_rb_map.h.svn-base
Adding src/decompose_mesh/scotch/src/libscotch/.svn/text-base/kgraph_map_rb_map.c.svn-base
Adding src/decompose_mesh/scotch/src/libscotch/.svn/text-base/kgraph_map_rb.h.svn-base
Adding src/decompose_mesh/scotch/src/libscotch/.svn/text-base/kgraph_map_rb.c.svn-base
Adding src/decompose_mesh/scotch/src/libscotch/.svn/text-base/kgraph_map_ml.h.svn-base
Adding src/decompose_mesh/scotch/src/libscotch/.svn/text-base/kgraph_map_ml.c.svn-base
Adding src/decompose_mesh/scotch/src/libscotch/.svn/text-base/kgraph_check.c.svn-base
Adding src/decompose_mesh/scotch/src/libscotch/.svn/text-base/kgraph.h.svn-base
Adding src/decompose_mesh/scotch/src/libscotch/.svn/text-base/kgraph.c.svn-base
Adding src/decompose_mesh/scotch/src/libscotch/.svn/text-base/kdgraph_map_st.h.svn-base
Adding src/decompose_mesh/scotch/src/libscotch/.svn/text-base/kdgraph_map_st.c.svn-base
Adding src/decompose_mesh/scotch/src/libscotch/.svn/text-base/kdgraph_map_rb_part.h.svn-base
Adding src/decompose_mesh/scotch/src/libscotch/.svn/text-base/kdgraph_map_rb_part.c.svn-base
Adding src/decompose_mesh/scotch/src/libscotch/.svn/text-base/kdgraph_map_rb_map.h.svn-base
Adding src/decompose_mesh/scotch/src/libscotch/.svn/text-base/kdgraph_map_rb_map.c.svn-base
Adding src/decompose_mesh/scotch/src/libscotch/.svn/text-base/kdgraph_map_rb.h.svn-base
Adding src/decompose_mesh/scotch/src/libscotch/.svn/text-base/kdgraph_map_rb.c.svn-base
Adding src/decompose_mesh/scotch/src/libscotch/.svn/text-base/kdgraph.h.svn-base
Adding src/decompose_mesh/scotch/src/libscotch/.svn/text-base/kdgraph.c.svn-base
Adding src/decompose_mesh/scotch/src/libscotch/.svn/text-base/hmesh_order_st.h.svn-base
Adding src/decompose_mesh/scotch/src/libscotch/.svn/text-base/hmesh_order_st.c.svn-base
Adding src/decompose_mesh/scotch/src/libscotch/.svn/text-base/hmesh_order_si.h.svn-base
Adding src/decompose_mesh/scotch/src/libscotch/.svn/text-base/hmesh_order_si.c.svn-base
Adding src/decompose_mesh/scotch/src/libscotch/.svn/text-base/hmesh_order_nd.h.svn-base
Adding src/decompose_mesh/scotch/src/libscotch/.svn/text-base/hmesh_order_nd.c.svn-base
Adding src/decompose_mesh/scotch/src/libscotch/.svn/text-base/hmesh_order_hx.h.svn-base
Adding src/decompose_mesh/scotch/src/libscotch/.svn/text-base/hmesh_order_hx.c.svn-base
Adding src/decompose_mesh/scotch/src/libscotch/.svn/text-base/hmesh_order_hf.h.svn-base
Adding src/decompose_mesh/scotch/src/libscotch/.svn/text-base/hmesh_order_hf.c.svn-base
Adding src/decompose_mesh/scotch/src/libscotch/.svn/text-base/hmesh_order_hd.h.svn-base
Adding src/decompose_mesh/scotch/src/libscotch/.svn/text-base/hmesh_order_hd.c.svn-base
Adding src/decompose_mesh/scotch/src/libscotch/.svn/text-base/hmesh_order_gr.h.svn-base
Adding src/decompose_mesh/scotch/src/libscotch/.svn/text-base/hmesh_order_gr.c.svn-base
Adding src/decompose_mesh/scotch/src/libscotch/.svn/text-base/hmesh_order_gp.h.svn-base
Adding src/decompose_mesh/scotch/src/libscotch/.svn/text-base/hmesh_order_gp.c.svn-base
Adding src/decompose_mesh/scotch/src/libscotch/.svn/text-base/hmesh_order_cp.h.svn-base
Adding src/decompose_mesh/scotch/src/libscotch/.svn/text-base/hmesh_order_cp.c.svn-base
Adding src/decompose_mesh/scotch/src/libscotch/.svn/text-base/hmesh_order_bl.h.svn-base
Adding src/decompose_mesh/scotch/src/libscotch/.svn/text-base/hmesh_order_bl.c.svn-base
Adding src/decompose_mesh/scotch/src/libscotch/.svn/text-base/hmesh_mesh.c.svn-base
Adding src/decompose_mesh/scotch/src/libscotch/.svn/text-base/hmesh_induce.h.svn-base
Adding src/decompose_mesh/scotch/src/libscotch/.svn/text-base/hmesh_induce.c.svn-base
Adding src/decompose_mesh/scotch/src/libscotch/.svn/text-base/hmesh_hgraph.h.svn-base
Adding src/decompose_mesh/scotch/src/libscotch/.svn/text-base/hmesh_hgraph.c.svn-base
Adding src/decompose_mesh/scotch/src/libscotch/.svn/text-base/hmesh_check.c.svn-base
Adding src/decompose_mesh/scotch/src/libscotch/.svn/text-base/hmesh.h.svn-base
Adding src/decompose_mesh/scotch/src/libscotch/.svn/text-base/hmesh.c.svn-base
Adding src/decompose_mesh/scotch/src/libscotch/.svn/text-base/hgraph_order_st.h.svn-base
Adding src/decompose_mesh/scotch/src/libscotch/.svn/text-base/hgraph_order_st.c.svn-base
Adding src/decompose_mesh/scotch/src/libscotch/.svn/text-base/hgraph_order_si.h.svn-base
Adding src/decompose_mesh/scotch/src/libscotch/.svn/text-base/hgraph_order_si.c.svn-base
Adding src/decompose_mesh/scotch/src/libscotch/.svn/text-base/hgraph_order_nd.h.svn-base
Adding src/decompose_mesh/scotch/src/libscotch/.svn/text-base/hgraph_order_nd.c.svn-base
Adding src/decompose_mesh/scotch/src/libscotch/.svn/text-base/hgraph_order_hx.h.svn-base
Adding src/decompose_mesh/scotch/src/libscotch/.svn/text-base/hgraph_order_hx.c.svn-base
Adding src/decompose_mesh/scotch/src/libscotch/.svn/text-base/hgraph_order_hf.h.svn-base
Adding src/decompose_mesh/scotch/src/libscotch/.svn/text-base/hgraph_order_hf.c.svn-base
Adding src/decompose_mesh/scotch/src/libscotch/.svn/text-base/hgraph_order_hd.h.svn-base
Adding src/decompose_mesh/scotch/src/libscotch/.svn/text-base/hgraph_order_hd.c.svn-base
Adding src/decompose_mesh/scotch/src/libscotch/.svn/text-base/hgraph_order_gp.h.svn-base
Adding src/decompose_mesh/scotch/src/libscotch/.svn/text-base/hgraph_order_gp.c.svn-base
Adding src/decompose_mesh/scotch/src/libscotch/.svn/text-base/hgraph_order_cp.h.svn-base
Adding src/decompose_mesh/scotch/src/libscotch/.svn/text-base/hgraph_order_cp.c.svn-base
Adding src/decompose_mesh/scotch/src/libscotch/.svn/text-base/hgraph_order_bl.h.svn-base
Adding src/decompose_mesh/scotch/src/libscotch/.svn/text-base/hgraph_order_bl.c.svn-base
Adding src/decompose_mesh/scotch/src/libscotch/.svn/text-base/hgraph_induce_edge.c.svn-base
Adding src/decompose_mesh/scotch/src/libscotch/.svn/text-base/hgraph_induce.h.svn-base
Adding src/decompose_mesh/scotch/src/libscotch/.svn/text-base/hgraph_induce.c.svn-base
Adding src/decompose_mesh/scotch/src/libscotch/.svn/text-base/hgraph_check.c.svn-base
Adding src/decompose_mesh/scotch/src/libscotch/.svn/text-base/hgraph.h.svn-base
Adding src/decompose_mesh/scotch/src/libscotch/.svn/text-base/hgraph.c.svn-base
Adding src/decompose_mesh/scotch/src/libscotch/.svn/text-base/hdgraph_order_st.h.svn-base
Adding src/decompose_mesh/scotch/src/libscotch/.svn/text-base/hdgraph_order_st.c.svn-base
Adding src/decompose_mesh/scotch/src/libscotch/.svn/text-base/hdgraph_order_sq.h.svn-base
Adding src/decompose_mesh/scotch/src/libscotch/.svn/text-base/hdgraph_order_sq.c.svn-base
Adding src/decompose_mesh/scotch/src/libscotch/.svn/text-base/hdgraph_order_si.h.svn-base
Adding src/decompose_mesh/scotch/src/libscotch/.svn/text-base/hdgraph_order_si.c.svn-base
Adding src/decompose_mesh/scotch/src/libscotch/.svn/text-base/hdgraph_order_nd.h.svn-base
Adding src/decompose_mesh/scotch/src/libscotch/.svn/text-base/hdgraph_order_nd.c.svn-base
Adding src/decompose_mesh/scotch/src/libscotch/.svn/text-base/hdgraph_induce.c.svn-base
Adding src/decompose_mesh/scotch/src/libscotch/.svn/text-base/hdgraph_gather.c.svn-base
Adding src/decompose_mesh/scotch/src/libscotch/.svn/text-base/hdgraph_fold.h.svn-base
Adding src/decompose_mesh/scotch/src/libscotch/.svn/text-base/hdgraph_fold.c.svn-base
Adding src/decompose_mesh/scotch/src/libscotch/.svn/text-base/hdgraph_check.c.svn-base
Adding src/decompose_mesh/scotch/src/libscotch/.svn/text-base/hdgraph.h.svn-base
Adding src/decompose_mesh/scotch/src/libscotch/.svn/text-base/hdgraph.c.svn-base
Adding src/decompose_mesh/scotch/src/libscotch/.svn/text-base/hall_order_hx.h.svn-base
Adding src/decompose_mesh/scotch/src/libscotch/.svn/text-base/hall_order_hx.c.svn-base
Adding src/decompose_mesh/scotch/src/libscotch/.svn/text-base/hall_order_hf.h.svn-base
Adding src/decompose_mesh/scotch/src/libscotch/.svn/text-base/hall_order_hf.c.svn-base
Adding src/decompose_mesh/scotch/src/libscotch/.svn/text-base/hall_order_hd.h.svn-base
Adding src/decompose_mesh/scotch/src/libscotch/.svn/text-base/hall_order_hd.c.svn-base
Adding src/decompose_mesh/scotch/src/libscotch/.svn/text-base/graph_list.h.svn-base
Adding src/decompose_mesh/scotch/src/libscotch/.svn/text-base/graph_list.c.svn-base
Adding src/decompose_mesh/scotch/src/libscotch/.svn/text-base/graph_io_scot.h.svn-base
Adding src/decompose_mesh/scotch/src/libscotch/.svn/text-base/graph_io_scot.c.svn-base
Adding src/decompose_mesh/scotch/src/libscotch/.svn/text-base/graph_io_mmkt.h.svn-base
Adding src/decompose_mesh/scotch/src/libscotch/.svn/text-base/graph_io_mmkt.c.svn-base
Adding src/decompose_mesh/scotch/src/libscotch/.svn/text-base/graph_io_habo.h.svn-base
Adding src/decompose_mesh/scotch/src/libscotch/.svn/text-base/graph_io_habo.c.svn-base
Adding src/decompose_mesh/scotch/src/libscotch/.svn/text-base/graph_io_chac.c.svn-base
Adding src/decompose_mesh/scotch/src/libscotch/.svn/text-base/graph_io.h.svn-base
Adding src/decompose_mesh/scotch/src/libscotch/.svn/text-base/graph_io.c.svn-base
Adding src/decompose_mesh/scotch/src/libscotch/.svn/text-base/graph_induce.h.svn-base
Adding src/decompose_mesh/scotch/src/libscotch/.svn/text-base/graph_induce.c.svn-base
Adding src/decompose_mesh/scotch/src/libscotch/.svn/text-base/graph_coarsen_edge.c.svn-base
Adding src/decompose_mesh/scotch/src/libscotch/.svn/text-base/graph_coarsen.h.svn-base
Adding src/decompose_mesh/scotch/src/libscotch/.svn/text-base/graph_coarsen.c.svn-base
Adding src/decompose_mesh/scotch/src/libscotch/.svn/text-base/graph_check.c.svn-base
Adding src/decompose_mesh/scotch/src/libscotch/.svn/text-base/graph_base.c.svn-base
Adding src/decompose_mesh/scotch/src/libscotch/.svn/text-base/graph.h.svn-base
Adding src/decompose_mesh/scotch/src/libscotch/.svn/text-base/graph.c.svn-base
Adding src/decompose_mesh/scotch/src/libscotch/.svn/text-base/geom.h.svn-base
Adding src/decompose_mesh/scotch/src/libscotch/.svn/text-base/geom.c.svn-base
Adding src/decompose_mesh/scotch/src/libscotch/.svn/text-base/gain.h.svn-base
Adding src/decompose_mesh/scotch/src/libscotch/.svn/text-base/gain.c.svn-base
Adding src/decompose_mesh/scotch/src/libscotch/.svn/text-base/dummysizes.c.svn-base
Adding src/decompose_mesh/scotch/src/libscotch/.svn/text-base/dorder_tree_dist.c.svn-base
Adding src/decompose_mesh/scotch/src/libscotch/.svn/text-base/dorder_perm.h.svn-base
Adding src/decompose_mesh/scotch/src/libscotch/.svn/text-base/dorder_perm.c.svn-base
Adding src/decompose_mesh/scotch/src/libscotch/.svn/text-base/dorder_io_tree.c.svn-base
Adding src/decompose_mesh/scotch/src/libscotch/.svn/text-base/dorder_io_block.c.svn-base
Adding src/decompose_mesh/scotch/src/libscotch/.svn/text-base/dorder_io.c.svn-base
Adding src/decompose_mesh/scotch/src/libscotch/.svn/text-base/dorder_gather.h.svn-base
Adding src/decompose_mesh/scotch/src/libscotch/.svn/text-base/dorder_gather.c.svn-base
Adding src/decompose_mesh/scotch/src/libscotch/.svn/text-base/dorder.h.svn-base
Adding src/decompose_mesh/scotch/src/libscotch/.svn/text-base/dorder.c.svn-base
Adding src/decompose_mesh/scotch/src/libscotch/.svn/text-base/dmapping_io.c.svn-base
Adding src/decompose_mesh/scotch/src/libscotch/.svn/text-base/dmapping.h.svn-base
Adding src/decompose_mesh/scotch/src/libscotch/.svn/text-base/dmapping.c.svn-base
Adding src/decompose_mesh/scotch/src/libscotch/.svn/text-base/dgraph_view.c.svn-base
Adding src/decompose_mesh/scotch/src/libscotch/.svn/text-base/dgraph_scatter.c.svn-base
Adding src/decompose_mesh/scotch/src/libscotch/.svn/text-base/dgraph_match_sync_ptop.c.svn-base
Adding src/decompose_mesh/scotch/src/libscotch/.svn/text-base/dgraph_match_sync_coll.c.svn-base
Adding src/decompose_mesh/scotch/src/libscotch/.svn/text-base/dgraph_match_scan.c.svn-base
Adding src/decompose_mesh/scotch/src/libscotch/.svn/text-base/dgraph_match_check.c.svn-base
Adding src/decompose_mesh/scotch/src/libscotch/.svn/text-base/dgraph_match.h.svn-base
Adding src/decompose_mesh/scotch/src/libscotch/.svn/text-base/dgraph_match.c.svn-base
Adding src/decompose_mesh/scotch/src/libscotch/.svn/text-base/dgraph_io_save.c.svn-base
Adding src/decompose_mesh/scotch/src/libscotch/.svn/text-base/dgraph_io_load.h.svn-base
[...]
Adding src/decompose_mesh/scotch/src/libscotch/.svn/text-base/bgraph_bipart_ex.c.svn-base
Adding src/decompose_mesh/scotch/src/libscotch/.svn/text-base/bgraph_bipart_df.h.svn-base
Adding src/decompose_mesh/scotch/src/libscotch/.svn/text-base/bgraph_bipart_df.c.svn-base
Adding src/decompose_mesh/scotch/src/libscotch/.svn/text-base/bgraph_bipart_bd.h.svn-base
Adding src/decompose_mesh/scotch/src/libscotch/.svn/text-base/bgraph_bipart_bd.c.svn-base
Adding src/decompose_mesh/scotch/src/libscotch/.svn/text-base/bgraph.h.svn-base
Adding src/decompose_mesh/scotch/src/libscotch/.svn/text-base/bgraph.c.svn-base
Adding src/decompose_mesh/scotch/src/libscotch/.svn/text-base/bdgraph_store.c.svn-base
Adding src/decompose_mesh/scotch/src/libscotch/.svn/text-base/bdgraph_gather_all.c.svn-base
Adding src/decompose_mesh/scotch/src/libscotch/.svn/text-base/bdgraph_check.c.svn-base
Adding src/decompose_mesh/scotch/src/libscotch/.svn/text-base/bdgraph_bipart_zr.h.svn-base
Adding src/decompose_mesh/scotch/src/libscotch/.svn/text-base/bdgraph_bipart_zr.c.svn-base
Adding src/decompose_mesh/scotch/src/libscotch/.svn/text-base/bdgraph_bipart_st.h.svn-base
Adding src/decompose_mesh/scotch/src/libscotch/.svn/text-base/bdgraph_bipart_st.c.svn-base
Adding src/decompose_mesh/scotch/src/libscotch/.svn/text-base/bdgraph_bipart_sq.h.svn-base
Adding src/decompose_mesh/scotch/src/libscotch/.svn/text-base/bdgraph_bipart_sq.c.svn-base
Adding src/decompose_mesh/scotch/src/libscotch/.svn/text-base/bdgraph_bipart_ml.h.svn-base
Adding src/decompose_mesh/scotch/src/libscotch/.svn/text-base/bdgraph_bipart_ml.c.svn-base
Adding src/decompose_mesh/scotch/src/libscotch/.svn/text-base/bdgraph_bipart_ex.h.svn-base
Adding src/decompose_mesh/scotch/src/libscotch/.svn/text-base/bdgraph_bipart_ex.c.svn-base
Adding src/decompose_mesh/scotch/src/libscotch/.svn/text-base/bdgraph_bipart_df.h.svn-base
Adding src/decompose_mesh/scotch/src/libscotch/.svn/text-base/bdgraph_bipart_df.c.svn-base
Adding src/decompose_mesh/scotch/src/libscotch/.svn/text-base/bdgraph_bipart_bd.h.svn-base
Adding src/decompose_mesh/scotch/src/libscotch/.svn/text-base/bdgraph_bipart_bd.c.svn-base
Adding src/decompose_mesh/scotch/src/libscotch/.svn/text-base/bdgraph.h.svn-base
Adding src/decompose_mesh/scotch/src/libscotch/.svn/text-base/bdgraph.c.svn-base
Adding src/decompose_mesh/scotch/src/libscotch/.svn/text-base/arch_vhcub.h.svn-base
Adding src/decompose_mesh/scotch/src/libscotch/.svn/text-base/arch_vhcub.c.svn-base
Adding src/decompose_mesh/scotch/src/libscotch/.svn/text-base/arch_vcmplt.h.svn-base
Adding src/decompose_mesh/scotch/src/libscotch/.svn/text-base/arch_vcmplt.c.svn-base
Adding src/decompose_mesh/scotch/src/libscotch/.svn/text-base/arch_torus.h.svn-base
Adding src/decompose_mesh/scotch/src/libscotch/.svn/text-base/arch_torus.c.svn-base
Adding src/decompose_mesh/scotch/src/libscotch/.svn/text-base/arch_tleaf.h.svn-base
Adding src/decompose_mesh/scotch/src/libscotch/.svn/text-base/arch_tleaf.c.svn-base
Adding src/decompose_mesh/scotch/src/libscotch/.svn/text-base/arch_mesh.h.svn-base
Adding src/decompose_mesh/scotch/src/libscotch/.svn/text-base/arch_mesh.c.svn-base
Adding src/decompose_mesh/scotch/src/libscotch/.svn/text-base/arch_hcub.h.svn-base
Adding src/decompose_mesh/scotch/src/libscotch/.svn/text-base/arch_hcub.c.svn-base
Adding src/decompose_mesh/scotch/src/libscotch/.svn/text-base/arch_deco.h.svn-base
Adding src/decompose_mesh/scotch/src/libscotch/.svn/text-base/arch_deco.c.svn-base
Adding src/decompose_mesh/scotch/src/libscotch/.svn/text-base/arch_cmpltw.h.svn-base
Adding src/decompose_mesh/scotch/src/libscotch/.svn/text-base/arch_cmpltw.c.svn-base
Adding src/decompose_mesh/scotch/src/libscotch/.svn/text-base/arch_cmplt.h.svn-base
Adding src/decompose_mesh/scotch/src/libscotch/.svn/text-base/arch_cmplt.c.svn-base
Adding src/decompose_mesh/scotch/src/libscotch/.svn/text-base/arch_build.h.svn-base
Adding src/decompose_mesh/scotch/src/libscotch/.svn/text-base/arch_build.c.svn-base
Adding src/decompose_mesh/scotch/src/libscotch/.svn/text-base/arch.h.svn-base
Adding src/decompose_mesh/scotch/src/libscotch/.svn/text-base/arch.c.svn-base
Adding src/decompose_mesh/scotch/src/libscotch/.svn/text-base/Makefile.svn-base
Adding src/decompose_mesh/scotch/src/libscotch/.svn/entries
Adding src/decompose_mesh/scotch/src/libscotch/.svn/all-wcprops
Adding src/decompose_mesh/scotch/src/Makefile.inc.in
Adding src/decompose_mesh/scotch/src/Makefile
Adding src/decompose_mesh/scotch/src/Make.inc/mingw32/gendll_2.bat
Adding src/decompose_mesh/scotch/src/Make.inc/mingw32/gendll_1.sh
Adding src/decompose_mesh/scotch/src/Make.inc/mingw32/gendll_0.sh
Adding src/decompose_mesh/scotch/src/Make.inc/mingw32/README.txt
Adding src/decompose_mesh/scotch/src/Make.inc/mingw32/.svn/text-base/gendll_2.bat.svn-base
Adding src/decompose_mesh/scotch/src/Make.inc/mingw32/.svn/text-base/gendll_1.sh.svn-base
Adding src/decompose_mesh/scotch/src/Make.inc/mingw32/.svn/text-base/gendll_0.sh.svn-base
Adding src/decompose_mesh/scotch/src/Make.inc/mingw32/.svn/text-base/README.txt.svn-base
Adding src/decompose_mesh/scotch/src/Make.inc/mingw32/.svn/prop-base/gendll_2.bat.svn-base
Adding src/decompose_mesh/scotch/src/Make.inc/mingw32/.svn/prop-base/gendll_1.sh.svn-base
Adding src/decompose_mesh/scotch/src/Make.inc/mingw32/.svn/prop-base/gendll_0.sh.svn-base
Adding src/decompose_mesh/scotch/src/Make.inc/mingw32/.svn/entries
Adding src/decompose_mesh/scotch/src/Make.inc/mingw32/.svn/all-wcprops
Adding src/decompose_mesh/scotch/src/Make.inc/Makefile.inc.x86-64_pc_linux2.icc.debug
Adding src/decompose_mesh/scotch/src/Make.inc/Makefile.inc.x86-64_pc_linux2.icc
Adding src/decompose_mesh/scotch/src/Make.inc/Makefile.inc.x86-64_pc_linux2
Adding src/decompose_mesh/scotch/src/Make.inc/Makefile.inc.x86-64_pc_freebsd
Adding src/decompose_mesh/scotch/src/Make.inc/Makefile.inc.x86-64_cray-xt4_linux2
Adding src/decompose_mesh/scotch/src/Make.inc/Makefile.inc.ppc450_ibm_bgp
Adding src/decompose_mesh/scotch/src/Make.inc/Makefile.inc.power6_ibm_aix5
Adding src/decompose_mesh/scotch/src/Make.inc/Makefile.inc.power3_ibm_aix5
Adding src/decompose_mesh/scotch/src/Make.inc/Makefile.inc.pa11_hp_ux10
Adding src/decompose_mesh/scotch/src/Make.inc/Makefile.inc.mips_sgi_irix6
Adding src/decompose_mesh/scotch/src/Make.inc/Makefile.inc.i686_sun_solaris5
Adding src/decompose_mesh/scotch/src/Make.inc/Makefile.inc.i686_pc_mingw32
Adding src/decompose_mesh/scotch/src/Make.inc/Makefile.inc.i686_pc_linux2.shlib.debug
Adding src/decompose_mesh/scotch/src/Make.inc/Makefile.inc.i686_pc_linux2.shlib
Adding src/decompose_mesh/scotch/src/Make.inc/Makefile.inc.i686_pc_linux2.prof
Adding src/decompose_mesh/scotch/src/Make.inc/Makefile.inc.i686_pc_linux2.nothreads
Adding src/decompose_mesh/scotch/src/Make.inc/Makefile.inc.i686_pc_linux2.debug
Adding src/decompose_mesh/scotch/src/Make.inc/Makefile.inc.i686_pc_linux2.c99
Adding src/decompose_mesh/scotch/src/Make.inc/Makefile.inc.i686_pc_linux2
Adding src/decompose_mesh/scotch/src/Make.inc/Makefile.inc.i686_pc_freebsd
Adding src/decompose_mesh/scotch/src/Make.inc/Makefile.inc.i686_mac_darwin8
Adding src/decompose_mesh/scotch/src/Make.inc/Makefile.inc.i686_mac_darwin10.icc
Adding src/decompose_mesh/scotch/src/Make.inc/Makefile.inc.alpha_dec_osf1
Adding src/decompose_mesh/scotch/src/Make.inc/.svn/text-base/Makefile.inc.x86-64_pc_linux2.svn-base
Adding src/decompose_mesh/scotch/src/Make.inc/.svn/text-base/Makefile.inc.x86-64_pc_linux2.icc.svn-base
Adding src/decompose_mesh/scotch/src/Make.inc/.svn/text-base/Makefile.inc.x86-64_pc_linux2.icc.debug.svn-base
Adding src/decompose_mesh/scotch/src/Make.inc/.svn/text-base/Makefile.inc.x86-64_pc_freebsd.svn-base
Adding src/decompose_mesh/scotch/src/Make.inc/.svn/text-base/Makefile.inc.x86-64_cray-xt4_linux2.svn-base
Adding src/decompose_mesh/scotch/src/Make.inc/.svn/text-base/Makefile.inc.ppc450_ibm_bgp.svn-base
Adding src/decompose_mesh/scotch/src/Make.inc/.svn/text-base/Makefile.inc.power6_ibm_aix5.svn-base
Adding src/decompose_mesh/scotch/src/Make.inc/.svn/text-base/Makefile.inc.power3_ibm_aix5.svn-base
Adding src/decompose_mesh/scotch/src/Make.inc/.svn/text-base/Makefile.inc.pa11_hp_ux10.svn-base
Adding src/decompose_mesh/scotch/src/Make.inc/.svn/text-base/Makefile.inc.mips_sgi_irix6.svn-base
Adding src/decompose_mesh/scotch/src/Make.inc/.svn/text-base/Makefile.inc.i686_sun_solaris5.svn-base
Adding src/decompose_mesh/scotch/src/Make.inc/.svn/text-base/Makefile.inc.i686_pc_mingw32.svn-base
Adding src/decompose_mesh/scotch/src/Make.inc/.svn/text-base/Makefile.inc.i686_pc_linux2.svn-base
Adding src/decompose_mesh/scotch/src/Make.inc/.svn/text-base/Makefile.inc.i686_pc_linux2.shlib.svn-base
Adding src/decompose_mesh/scotch/src/Make.inc/.svn/text-base/Makefile.inc.i686_pc_linux2.shlib.debug.svn-base
Adding src/decompose_mesh/scotch/src/Make.inc/.svn/text-base/Makefile.inc.i686_pc_linux2.prof.svn-base
Adding src/decompose_mesh/scotch/src/Make.inc/.svn/text-base/Makefile.inc.i686_pc_linux2.nothreads.svn-base
Adding src/decompose_mesh/scotch/src/Make.inc/.svn/text-base/Makefile.inc.i686_pc_linux2.debug.svn-base
Adding src/decompose_mesh/scotch/src/Make.inc/.svn/text-base/Makefile.inc.i686_pc_linux2.c99.svn-base
Adding src/decompose_mesh/scotch/src/Make.inc/.svn/text-base/Makefile.inc.i686_pc_freebsd.svn-base
Adding src/decompose_mesh/scotch/src/Make.inc/.svn/text-base/Makefile.inc.i686_mac_darwin8.svn-base
Adding src/decompose_mesh/scotch/src/Make.inc/.svn/text-base/Makefile.inc.i686_mac_darwin10.icc.svn-base
Adding src/decompose_mesh/scotch/src/Make.inc/.svn/text-base/Makefile.inc.alpha_dec_osf1.svn-base
Adding src/decompose_mesh/scotch/src/Make.inc/.svn/entries
Adding src/decompose_mesh/scotch/src/Make.inc/.svn/all-wcprops
Adding src/decompose_mesh/scotch/src/.svn/text-base/Makefile.svn-base
Adding src/decompose_mesh/scotch/src/.svn/text-base/Makefile.inc.in.svn-base
Adding src/decompose_mesh/scotch/src/.svn/entries
Adding src/decompose_mesh/scotch/src/.svn/all-wcprops
Adding src/decompose_mesh/scotch/man/man1/mtst.1
Adding src/decompose_mesh/scotch/man/man1/mord.1
Adding src/decompose_mesh/scotch/man/man1/mmk_m3.1
Adding src/decompose_mesh/scotch/man/man1/mmk_m2.1
Adding src/decompose_mesh/scotch/man/man1/mcv.1
Adding src/decompose_mesh/scotch/man/man1/gtst.1
Adding src/decompose_mesh/scotch/man/man1/gpart.1
Adding src/decompose_mesh/scotch/man/man1/gout.1
Adding src/decompose_mesh/scotch/man/man1/gotst.1
Adding src/decompose_mesh/scotch/man/man1/gord.1
Adding src/decompose_mesh/scotch/man/man1/gmtst.1
Adding src/decompose_mesh/scotch/man/man1/gmk_ub2.1
Adding src/decompose_mesh/scotch/man/man1/gmk_msh.1
Adding src/decompose_mesh/scotch/man/man1/gmk_m3.1
Adding src/decompose_mesh/scotch/man/man1/gmk_m2.1
Adding src/decompose_mesh/scotch/man/man1/gmk_hy.1
Adding src/decompose_mesh/scotch/man/man1/gmap.1
Adding src/decompose_mesh/scotch/man/man1/gcv.1
Adding src/decompose_mesh/scotch/man/man1/gbase.1
Adding src/decompose_mesh/scotch/man/man1/dgtst.1
Adding src/decompose_mesh/scotch/man/man1/dgscat.1
Adding src/decompose_mesh/scotch/man/man1/dgpart.1
Adding src/decompose_mesh/scotch/man/man1/dgord.1
Adding src/decompose_mesh/scotch/man/man1/dgmap.1
Adding src/decompose_mesh/scotch/man/man1/dggath.1
Adding src/decompose_mesh/scotch/man/man1/atst.1
Adding src/decompose_mesh/scotch/man/man1/amk_p2.1
Adding src/decompose_mesh/scotch/man/man1/amk_m2.1
Adding src/decompose_mesh/scotch/man/man1/amk_hy.1
Adding src/decompose_mesh/scotch/man/man1/amk_grf.1
Adding src/decompose_mesh/scotch/man/man1/amk_fft2.1
Adding src/decompose_mesh/scotch/man/man1/amk_ccc.1
Adding src/decompose_mesh/scotch/man/man1/acpl.1
Adding src/decompose_mesh/scotch/man/man1/.svn/text-base/mtst.1.svn-base
Adding src/decompose_mesh/scotch/man/man1/.svn/text-base/mord.1.svn-base
Adding src/decompose_mesh/scotch/man/man1/.svn/text-base/mmk_m3.1.svn-base
Adding src/decompose_mesh/scotch/man/man1/.svn/text-base/mmk_m2.1.svn-base
Adding src/decompose_mesh/scotch/man/man1/.svn/text-base/mcv.1.svn-base
Adding src/decompose_mesh/scotch/man/man1/.svn/text-base/gtst.1.svn-base
Adding src/decompose_mesh/scotch/man/man1/.svn/text-base/gpart.1.svn-base
Adding src/decompose_mesh/scotch/man/man1/.svn/text-base/gout.1.svn-base
Adding src/decompose_mesh/scotch/man/man1/.svn/text-base/gotst.1.svn-base
Adding src/decompose_mesh/scotch/man/man1/.svn/text-base/gord.1.svn-base
Adding src/decompose_mesh/scotch/man/man1/.svn/text-base/gmtst.1.svn-base
Adding src/decompose_mesh/scotch/man/man1/.svn/text-base/gmk_ub2.1.svn-base
Adding src/decompose_mesh/scotch/man/man1/.svn/text-base/gmk_msh.1.svn-base
Adding src/decompose_mesh/scotch/man/man1/.svn/text-base/gmk_m3.1.svn-base
Adding src/decompose_mesh/scotch/man/man1/.svn/text-base/gmk_m2.1.svn-base
Adding src/decompose_mesh/scotch/man/man1/.svn/text-base/gmk_hy.1.svn-base
Adding src/decompose_mesh/scotch/man/man1/.svn/text-base/gmap.1.svn-base
Adding src/decompose_mesh/scotch/man/man1/.svn/text-base/gcv.1.svn-base
Adding src/decompose_mesh/scotch/man/man1/.svn/text-base/gbase.1.svn-base
Adding src/decompose_mesh/scotch/man/man1/.svn/text-base/dgtst.1.svn-base
Adding src/decompose_mesh/scotch/man/man1/.svn/text-base/dgscat.1.svn-base
Adding src/decompose_mesh/scotch/man/man1/.svn/text-base/dgpart.1.svn-base
Adding src/decompose_mesh/scotch/man/man1/.svn/text-base/dgord.1.svn-base
Adding src/decompose_mesh/scotch/man/man1/.svn/text-base/dgmap.1.svn-base
Adding src/decompose_mesh/scotch/man/man1/.svn/text-base/dggath.1.svn-base
Adding src/decompose_mesh/scotch/man/man1/.svn/text-base/atst.1.svn-base
Adding src/decompose_mesh/scotch/man/man1/.svn/text-base/amk_p2.1.svn-base
Adding src/decompose_mesh/scotch/man/man1/.svn/text-base/amk_m2.1.svn-base
Adding src/decompose_mesh/scotch/man/man1/.svn/text-base/amk_hy.1.svn-base
Adding src/decompose_mesh/scotch/man/man1/.svn/text-base/amk_grf.1.svn-base
Adding src/decompose_mesh/scotch/man/man1/.svn/text-base/amk_fft2.1.svn-base
Adding src/decompose_mesh/scotch/man/man1/.svn/text-base/amk_ccc.1.svn-base
Adding src/decompose_mesh/scotch/man/man1/.svn/text-base/acpl.1.svn-base
Adding src/decompose_mesh/scotch/man/man1/.svn/entries
Adding src/decompose_mesh/scotch/man/man1/.svn/all-wcprops
Adding src/decompose_mesh/scotch/man/.svn/entries
Adding src/decompose_mesh/scotch/man/.svn/all-wcprops
Adding src/decompose_mesh/scotch/grf/bump.xyz.gz
Adding src/decompose_mesh/scotch/grf/bump.grf.gz
Adding src/decompose_mesh/scotch/grf/4elt2.xyz.gz
Adding src/decompose_mesh/scotch/grf/4elt2.grf.gz
Adding src/decompose_mesh/scotch/grf/4elt.xyz.gz
Adding src/decompose_mesh/scotch/grf/4elt.grf.gz
Adding src/decompose_mesh/scotch/grf/3elt.xyz.gz
Adding src/decompose_mesh/scotch/grf/3elt.grf.gz
Adding src/decompose_mesh/scotch/grf/.svn/text-base/bump.xyz.gz.svn-base
Adding src/decompose_mesh/scotch/grf/.svn/text-base/bump.grf.gz.svn-base
Adding src/decompose_mesh/scotch/grf/.svn/text-base/4elt2.xyz.gz.svn-base
Adding src/decompose_mesh/scotch/grf/.svn/text-base/4elt2.grf.gz.svn-base
Adding src/decompose_mesh/scotch/grf/.svn/text-base/4elt.xyz.gz.svn-base
Adding src/decompose_mesh/scotch/grf/.svn/text-base/4elt.grf.gz.svn-base
Adding src/decompose_mesh/scotch/grf/.svn/text-base/3elt.xyz.gz.svn-base
Adding src/decompose_mesh/scotch/grf/.svn/text-base/3elt.grf.gz.svn-base
Adding src/decompose_mesh/scotch/grf/.svn/prop-base/bump.xyz.gz.svn-base
Adding src/decompose_mesh/scotch/grf/.svn/prop-base/bump.grf.gz.svn-base
Adding src/decompose_mesh/scotch/grf/.svn/prop-base/4elt2.xyz.gz.svn-base
Adding src/decompose_mesh/scotch/grf/.svn/prop-base/4elt2.grf.gz.svn-base
Adding src/decompose_mesh/scotch/grf/.svn/prop-base/4elt.xyz.gz.svn-base
Adding src/decompose_mesh/scotch/grf/.svn/prop-base/4elt.grf.gz.svn-base
Adding src/decompose_mesh/scotch/grf/.svn/prop-base/3elt.xyz.gz.svn-base
Adding src/decompose_mesh/scotch/grf/.svn/prop-base/3elt.grf.gz.svn-base
Adding src/decompose_mesh/scotch/grf/.svn/entries
Adding src/decompose_mesh/scotch/grf/.svn/all-wcprops
Adding src/decompose_mesh/scotch/examples/scotch_example_2.f90
Adding src/decompose_mesh/scotch/examples/scotch_example_1.f
Adding src/decompose_mesh/scotch/examples/.svn/text-base/scotch_example_2.f90.svn-base
Adding src/decompose_mesh/scotch/examples/.svn/text-base/scotch_example_1.f.svn-base
Adding src/decompose_mesh/scotch/examples/.svn/entries
Adding src/decompose_mesh/scotch/examples/.svn/all-wcprops
Adding src/decompose_mesh/scotch/doc/scotch_user5.1.ps.gz
Adding src/decompose_mesh/scotch/doc/scotch_user5.1.pdf
Adding src/decompose_mesh/scotch/doc/ptscotch_user5.1.ps.gz
Adding src/decompose_mesh/scotch/doc/ptscotch_user5.1.pdf
Adding src/decompose_mesh/scotch/doc/CeCILL-C_V1-fr.txt
Adding src/decompose_mesh/scotch/doc/CeCILL-C_V1-en.txt
Adding src/decompose_mesh/scotch/doc/.svn/text-base/scotch_user5.1.ps.gz.svn-base
Adding src/decompose_mesh/scotch/doc/.svn/text-base/scotch_user5.1.pdf.svn-base
Adding src/decompose_mesh/scotch/doc/.svn/text-base/ptscotch_user5.1.ps.gz.svn-base
Adding src/decompose_mesh/scotch/doc/.svn/text-base/ptscotch_user5.1.pdf.svn-base
Adding src/decompose_mesh/scotch/doc/.svn/text-base/CeCILL-C_V1-fr.txt.svn-base
Adding src/decompose_mesh/scotch/doc/.svn/text-base/CeCILL-C_V1-en.txt.svn-base
Adding src/decompose_mesh/scotch/doc/.svn/prop-base/scotch_user5.1.ps.gz.svn-base
Adding src/decompose_mesh/scotch/doc/.svn/prop-base/scotch_user5.1.pdf.svn-base
Adding src/decompose_mesh/scotch/doc/.svn/prop-base/ptscotch_user5.1.ps.gz.svn-base
Adding src/decompose_mesh/scotch/doc/.svn/prop-base/ptscotch_user5.1.pdf.svn-base
Adding src/decompose_mesh/scotch/doc/.svn/entries
Adding src/decompose_mesh/scotch/doc/.svn/all-wcprops
Adding src/decompose_mesh/scotch/README.txt
Adding src/decompose_mesh/scotch/LISEZ-MOI.txt
Adding src/decompose_mesh/scotch/LICENSE_en.txt
Adding src/decompose_mesh/scotch/LICENCE_fr.txt
Adding src/decompose_mesh/scotch/INSTALL.txt
Adding src/decompose_mesh/scotch/.svn/text-base/README.txt.svn-base
Adding src/decompose_mesh/scotch/.svn/text-base/LISEZ-MOI.txt.svn-base
Adding src/decompose_mesh/scotch/.svn/text-base/LICENSE_en.txt.svn-base
Adding src/decompose_mesh/scotch/.svn/text-base/LICENCE_fr.txt.svn-base
Adding src/decompose_mesh/scotch/.svn/text-base/INSTALL.txt.svn-base
Adding src/decompose_mesh/scotch/.svn/entries
Adding src/decompose_mesh/scotch/.svn/all-wcprops
CONFLICT (file/directory): There is a directory with name src/decompose_mesh/scotch in 8b9e3fbcb4c4551c70659f0cea8903e69cba6649. Adding src/decompose_mesh/scotch as src/decompose_mesh/scotch~HEAD
Automatic merge failed; fix conflicts and then commit the result.

####Carene Fix######
I don't understand what happened with the directory scotch; it does exist on the initial commit stored in remote (8b9e3fbcb4c4551c70659f0cea8903e69cba6649) and on the local LANL clusters; both as directories; do not understand the conflict file/directory that is reported; I checked that the changes only concerns Makefile so it doesn't matter which commit we keep.
I remove scotch~HEAD git rm scotch~HEAD
Interestingly enough if I go in the directoty scotch~HEAD, and do "pwd", I am informed that I am in decompose_mesh/scotch_5.1.12b!!! 
rm SCOTH~HEAD
cp Makefile of LANL in the Makefile of scotch_5.1.12b; then add them; 
git add src/decompose_mesh/scotch_5.1.12b/src/Makefile
git add src/decompose_mesh/scotch_5.1.12b/src/libscotch/Makefile
git add src/decompose_mesh/scotch_5.1.12b/src/scotch/Makefile
git add src/decompose_mesh/scotch_5.1.12b/src/libscotchmetis/Makefile

Modifications are for:
-DERIVATIVE SEISMOGRAMS AND SEISMOGRAMS: vel and div for "DER" seismo; velocity for normal
-surface.h has to be put in the same directory than /create_movie_shakemap_AVS_DX_GMT.f90
-Location of receivers and sources modified
  * BEHAVIOR CHANGED through USE_SOURCES_RECEIVERS_Z and MODELING_ATMO set to true in constants.h
  receivers: stbur(irec) given in km - line 391 in locate_receivers
  sources: depth is entered in km - line 269 in locate_sources 
